<?xml version="1.0" encoding="UTF-8"?>

<!-- generated on 2025-04-28 16:45:28 by Eclipse SUMO netgenerate Version 1.22.0
<netgenerateConfiguration xmlns:xsi="http://www.w3.org/2001/XMLSchema-instance" xsi:noNamespaceSchemaLocation="http://sumo.dlr.de/xsd/netgenerateConfiguration.xsd">

    <random_network>
        <rand value="true"/>
        <rand.iterations value="75"/>
        <rand.max-distance value="300"/>
        <rand.min-distance value="200"/>
        <rand.min-angle value="90"/>
        <rand.neighbor-dist1 value="5.0"/>
        <rand.neighbor-dist2 value="50.0"/>
        <rand.neighbor-dist3 value="25.0"/>
        <rand.neighbor-dist4 value="20.0"/>
        <rand.neighbor-dist5 value="0.0"/>
        <rand.neighbor-dist6 value="0.0"/>
        <rand.grid value="true"/>
    </random_network>

    <output>
        <output-file value="learning_small.net.xml"/>
    </output>

    <building_defaults>
        <default.lanenumber value="2"/>
    </building_defaults>

    <tls_building>
        <tls.guess value="true"/>
        <tls.guess.threshold value="0"/>
    </tls_building>

</netgenerateConfiguration>
-->

<net version="1.20" junctionCornerDetail="5" limitTurnSpeed="5.50" xmlns:xsi="http://www.w3.org/2001/XMLSchema-instance" xsi:noNamespaceSchemaLocation="http://sumo.dlr.de/xsd/net_file.xsd">

    <location netOffset="1400.00,800.00" convBoundary="0.00,0.00,3000.00,1800.00" origBoundary="-1400.00,-800.00,1600.00,1000.00" projParameter="!"/>

    <edge id=":1_0" function="internal">
        <lane id=":1_0_0" index="0" speed="6.51" length="9.03" shape="1395.20,810.40 1394.85,807.95 1393.80,806.20 1392.05,805.15 1389.60,804.80"/>
    </edge>
    <edge id=":1_1" function="internal">
        <lane id=":1_1_0" index="0" speed="13.89" length="20.80" shape="1395.20,810.40 1395.20,789.60"/>
        <lane id=":1_1_1" index="1" speed="13.89" length="20.80" shape="1398.40,810.40 1398.40,789.60"/>
    </edge>
    <edge id=":1_3" function="internal">
        <lane id=":1_3_0" index="0" speed="9.26" length="5.01" shape="1398.40,810.40 1399.11,805.44"/>
    </edge>
    <edge id=":1_4" function="internal">
        <lane id=":1_4_0" index="0" speed="3.65" length="1.44" shape="1398.40,810.40 1399.20,809.20"/>
    </edge>
    <edge id=":1_20" function="internal">
        <lane id=":1_20_0" index="0" speed="9.26" length="14.34" shape="1399.11,805.44 1399.15,805.15 1401.40,801.40 1405.15,799.15 1410.40,798.40"/>
    </edge>
    <edge id=":1_21" function="internal">
        <lane id=":1_21_0" index="0" speed="3.65" length="3.23" shape="1399.20,809.20 1400.00,808.80 1400.80,809.20 1401.60,810.40"/>
    </edge>
    <edge id=":1_5" function="internal">
        <lane id=":1_5_0" index="0" speed="6.51" length="9.03" shape="1410.40,804.80 1407.95,805.15 1406.20,806.20 1405.15,807.95 1404.80,810.40"/>
    </edge>
    <edge id=":1_6" function="internal">
        <lane id=":1_6_0" index="0" speed="13.89" length="20.80" shape="1410.40,804.80 1389.60,804.80"/>
        <lane id=":1_6_1" index="1" speed="13.89" length="20.80" shape="1410.40,801.60 1389.60,801.60"/>
    </edge>
    <edge id=":1_8" function="internal">
        <lane id=":1_8_0" index="0" speed="9.26" length="5.01" shape="1410.40,801.60 1405.44,800.89"/>
    </edge>
    <edge id=":1_9" function="internal">
        <lane id=":1_9_0" index="0" speed="3.65" length="1.44" shape="1410.40,801.60 1409.20,800.80"/>
    </edge>
    <edge id=":1_22" function="internal">
        <lane id=":1_22_0" index="0" speed="9.26" length="14.34" shape="1405.44,800.89 1405.15,800.85 1401.40,798.60 1399.15,794.85 1398.40,789.60"/>
    </edge>
    <edge id=":1_23" function="internal">
        <lane id=":1_23_0" index="0" speed="3.65" length="3.23" shape="1409.20,800.80 1408.80,800.00 1409.20,799.20 1410.40,798.40"/>
    </edge>
    <edge id=":1_10" function="internal">
        <lane id=":1_10_0" index="0" speed="6.51" length="9.03" shape="1404.80,789.60 1405.15,792.05 1406.20,793.80 1407.95,794.85 1410.40,795.20"/>
    </edge>
    <edge id=":1_11" function="internal">
        <lane id=":1_11_0" index="0" speed="13.89" length="20.80" shape="1404.80,789.60 1404.80,810.40"/>
        <lane id=":1_11_1" index="1" speed="13.89" length="20.80" shape="1401.60,789.60 1401.60,810.40"/>
    </edge>
    <edge id=":1_13" function="internal">
        <lane id=":1_13_0" index="0" speed="9.26" length="5.01" shape="1401.60,789.60 1400.89,794.56"/>
    </edge>
    <edge id=":1_14" function="internal">
        <lane id=":1_14_0" index="0" speed="3.65" length="1.44" shape="1401.60,789.60 1400.80,790.80"/>
    </edge>
    <edge id=":1_24" function="internal">
        <lane id=":1_24_0" index="0" speed="9.26" length="14.34" shape="1400.89,794.56 1400.85,794.85 1398.60,798.60 1394.85,800.85 1389.60,801.60"/>
    </edge>
    <edge id=":1_25" function="internal">
        <lane id=":1_25_0" index="0" speed="3.65" length="3.23" shape="1400.80,790.80 1400.00,791.20 1399.20,790.80 1398.40,789.60"/>
    </edge>
    <edge id=":1_15" function="internal">
        <lane id=":1_15_0" index="0" speed="6.51" length="9.03" shape="1389.60,795.20 1392.05,794.85 1393.80,793.80 1394.85,792.05 1395.20,789.60"/>
    </edge>
    <edge id=":1_16" function="internal">
        <lane id=":1_16_0" index="0" speed="13.89" length="20.80" shape="1389.60,795.20 1410.40,795.20"/>
        <lane id=":1_16_1" index="1" speed="13.89" length="20.80" shape="1389.60,798.40 1410.40,798.40"/>
    </edge>
    <edge id=":1_18" function="internal">
        <lane id=":1_18_0" index="0" speed="9.26" length="5.01" shape="1389.60,798.40 1394.56,799.11"/>
    </edge>
    <edge id=":1_19" function="internal">
        <lane id=":1_19_0" index="0" speed="3.65" length="1.44" shape="1389.60,798.40 1390.80,799.20"/>
    </edge>
    <edge id=":1_26" function="internal">
        <lane id=":1_26_0" index="0" speed="9.26" length="14.34" shape="1394.56,799.11 1394.85,799.15 1398.60,801.40 1400.85,805.15 1401.60,810.40"/>
    </edge>
    <edge id=":1_27" function="internal">
        <lane id=":1_27_0" index="0" speed="3.65" length="3.23" shape="1390.80,799.20 1391.20,800.00 1390.80,800.80 1389.60,801.60"/>
    </edge>
    <edge id=":10_0" function="internal">
        <lane id=":10_0_0" index="0" speed="13.89" length="20.80" shape="1210.40,804.80 1189.60,804.80"/>
        <lane id=":10_0_1" index="1" speed="13.89" length="20.80" shape="1210.40,801.60 1189.60,801.60"/>
    </edge>
    <edge id=":10_2" function="internal">
        <lane id=":10_2_0" index="0" speed="9.26" length="5.01" shape="1210.40,801.60 1205.44,800.89"/>
    </edge>
    <edge id=":10_3" function="internal">
        <lane id=":10_3_0" index="0" speed="3.65" length="1.44" shape="1210.40,801.60 1209.20,800.80"/>
    </edge>
    <edge id=":10_12" function="internal">
        <lane id=":10_12_0" index="0" speed="9.26" length="14.34" shape="1205.44,800.89 1205.15,800.85 1201.40,798.60 1199.15,794.85 1198.40,789.60"/>
    </edge>
    <edge id=":10_13" function="internal">
        <lane id=":10_13_0" index="0" speed="3.65" length="3.23" shape="1209.20,800.80 1208.80,800.00 1209.20,799.20 1210.40,798.40"/>
    </edge>
    <edge id=":10_4" function="internal">
        <lane id=":10_4_0" index="0" speed="6.51" length="9.03" shape="1204.80,789.60 1205.15,792.05 1206.20,793.80 1207.95,794.85 1210.40,795.20"/>
        <lane id=":10_4_1" index="1" speed="8.00" length="14.19" shape="1201.60,789.60 1202.15,793.45 1203.80,796.20 1206.55,797.85 1210.40,798.40"/>
    </edge>
    <edge id=":10_6" function="internal">
        <lane id=":10_6_0" index="0" speed="9.26" length="19.35" shape="1201.60,789.60 1200.85,794.85 1198.60,798.60 1194.85,800.85 1189.60,801.60"/>
    </edge>
    <edge id=":10_7" function="internal">
        <lane id=":10_7_0" index="0" speed="3.65" length="2.34" shape="1201.60,789.60 1200.80,790.80 1200.00,791.20"/>
    </edge>
    <edge id=":10_14" function="internal">
        <lane id=":10_14_0" index="0" speed="3.65" length="2.34" shape="1200.00,791.20 1199.20,790.80 1198.40,789.60"/>
    </edge>
    <edge id=":10_8" function="internal">
        <lane id=":10_8_0" index="0" speed="6.51" length="9.03" shape="1189.60,795.20 1192.05,794.85 1193.80,793.80 1194.85,792.05 1195.20,789.60"/>
    </edge>
    <edge id=":10_9" function="internal">
        <lane id=":10_9_0" index="0" speed="13.89" length="20.80" shape="1189.60,795.20 1210.40,795.20"/>
        <lane id=":10_9_1" index="1" speed="13.89" length="20.80" shape="1189.60,798.40 1210.40,798.40"/>
    </edge>
    <edge id=":10_11" function="internal">
        <lane id=":10_11_0" index="0" speed="3.65" length="1.44" shape="1189.60,798.40 1190.80,799.20"/>
    </edge>
    <edge id=":10_15" function="internal">
        <lane id=":10_15_0" index="0" speed="3.65" length="3.23" shape="1190.80,799.20 1191.20,800.00 1190.80,800.80 1189.60,801.60"/>
    </edge>
    <edge id=":1001_0" function="internal">
        <lane id=":1001_0_0" index="0" speed="6.51" length="9.03" shape="195.20,1610.40 194.85,1607.95 193.80,1606.20 192.05,1605.15 189.60,1604.80"/>
        <lane id=":1001_0_1" index="1" speed="8.00" length="14.19" shape="198.40,1610.40 197.85,1606.55 196.20,1603.80 193.45,1602.15 189.60,1601.60"/>
    </edge>
    <edge id=":1001_2" function="internal">
        <lane id=":1001_2_0" index="0" speed="9.26" length="19.35" shape="198.40,1610.40 199.15,1605.15 201.40,1601.40 205.15,1599.15 210.40,1598.40"/>
    </edge>
    <edge id=":1001_3" function="internal">
        <lane id=":1001_3_0" index="0" speed="3.65" length="2.34" shape="198.40,1610.40 199.20,1609.20 200.00,1608.80"/>
    </edge>
    <edge id=":1001_12" function="internal">
        <lane id=":1001_12_0" index="0" speed="3.65" length="2.34" shape="200.00,1608.80 200.80,1609.20 201.60,1610.40"/>
    </edge>
    <edge id=":1001_4" function="internal">
        <lane id=":1001_4_0" index="0" speed="6.51" length="9.03" shape="210.40,1604.80 207.95,1605.15 206.20,1606.20 205.15,1607.95 204.80,1610.40"/>
    </edge>
    <edge id=":1001_5" function="internal">
        <lane id=":1001_5_0" index="0" speed="13.89" length="20.80" shape="210.40,1604.80 189.60,1604.80"/>
        <lane id=":1001_5_1" index="1" speed="13.89" length="20.80" shape="210.40,1601.60 189.60,1601.60"/>
    </edge>
    <edge id=":1001_7" function="internal">
        <lane id=":1001_7_0" index="0" speed="3.65" length="1.44" shape="210.40,1601.60 209.20,1600.80"/>
    </edge>
    <edge id=":1001_13" function="internal">
        <lane id=":1001_13_0" index="0" speed="3.65" length="3.23" shape="209.20,1600.80 208.80,1600.00 209.20,1599.20 210.40,1598.40"/>
    </edge>
    <edge id=":1001_8" function="internal">
        <lane id=":1001_8_0" index="0" speed="13.89" length="20.80" shape="189.60,1595.20 210.40,1595.20"/>
        <lane id=":1001_8_1" index="1" speed="13.89" length="20.80" shape="189.60,1598.40 210.40,1598.40"/>
    </edge>
    <edge id=":1001_10" function="internal">
        <lane id=":1001_10_0" index="0" speed="9.26" length="5.01" shape="189.60,1598.40 194.56,1599.11"/>
    </edge>
    <edge id=":1001_11" function="internal">
        <lane id=":1001_11_0" index="0" speed="3.65" length="1.44" shape="189.60,1598.40 190.80,1599.20"/>
    </edge>
    <edge id=":1001_14" function="internal">
        <lane id=":1001_14_0" index="0" speed="9.26" length="14.34" shape="194.56,1599.11 194.85,1599.15 198.60,1601.40 200.85,1605.15 201.60,1610.40"/>
    </edge>
    <edge id=":1001_15" function="internal">
        <lane id=":1001_15_0" index="0" speed="3.65" length="3.23" shape="190.80,1599.20 191.20,1600.00 190.80,1600.80 189.60,1601.60"/>
    </edge>
    <edge id=":1003_0" function="internal">
        <lane id=":1003_0_0" index="0" speed="3.65" length="4.67" shape="400.00,1401.60 398.80,1400.80 398.40,1400.00 398.80,1399.20 400.00,1398.40"/>
    </edge>
    <edge id=":101_0" function="internal">
        <lane id=":101_0_0" index="0" speed="9.84" length="8.80" shape="398.48,1005.27 397.05,1003.54 396.02,1001.65 395.41,999.58 395.20,997.35"/>
        <lane id=":101_0_1" index="1" speed="8.39" length="6.28" shape="400.74,1003.01 399.72,1001.77 398.99,1000.42 398.55,998.95 398.40,997.35"/>
    </edge>
    <edge id=":101_2" function="internal">
        <lane id=":101_2_0" index="0" speed="4.20" length="1.26" shape="404.80,997.35 404.83,997.67 404.92,997.96 405.06,998.23 405.27,998.48"/>
        <lane id=":101_2_1" index="1" speed="6.63" length="3.77" shape="401.60,997.35 401.69,998.31 401.95,999.19 402.39,1000.00 403.01,1000.74"/>
    </edge>
    <edge id=":1015_0" function="internal">
        <lane id=":1015_0_0" index="0" speed="6.51" length="9.03" shape="2395.20,810.40 2394.85,807.95 2393.80,806.20 2392.05,805.15 2389.60,804.80"/>
    </edge>
    <edge id=":1015_1" function="internal">
        <lane id=":1015_1_0" index="0" speed="13.89" length="20.80" shape="2395.20,810.40 2395.20,789.60"/>
        <lane id=":1015_1_1" index="1" speed="13.89" length="20.80" shape="2398.40,810.40 2398.40,789.60"/>
    </edge>
    <edge id=":1015_3" function="internal">
        <lane id=":1015_3_0" index="0" speed="9.26" length="5.01" shape="2398.40,810.40 2399.11,805.44"/>
    </edge>
    <edge id=":1015_4" function="internal">
        <lane id=":1015_4_0" index="0" speed="3.65" length="1.44" shape="2398.40,810.40 2399.20,809.20"/>
    </edge>
    <edge id=":1015_20" function="internal">
        <lane id=":1015_20_0" index="0" speed="9.26" length="14.34" shape="2399.11,805.44 2399.15,805.15 2401.40,801.40 2405.15,799.15 2410.40,798.40"/>
    </edge>
    <edge id=":1015_21" function="internal">
        <lane id=":1015_21_0" index="0" speed="3.65" length="3.23" shape="2399.20,809.20 2400.00,808.80 2400.80,809.20 2401.60,810.40"/>
    </edge>
    <edge id=":1015_5" function="internal">
        <lane id=":1015_5_0" index="0" speed="6.51" length="9.03" shape="2410.40,804.80 2407.95,805.15 2406.20,806.20 2405.15,807.95 2404.80,810.40"/>
    </edge>
    <edge id=":1015_6" function="internal">
        <lane id=":1015_6_0" index="0" speed="13.89" length="20.80" shape="2410.40,804.80 2389.60,804.80"/>
        <lane id=":1015_6_1" index="1" speed="13.89" length="20.80" shape="2410.40,801.60 2389.60,801.60"/>
    </edge>
    <edge id=":1015_8" function="internal">
        <lane id=":1015_8_0" index="0" speed="9.26" length="5.01" shape="2410.40,801.60 2405.44,800.89"/>
    </edge>
    <edge id=":1015_9" function="internal">
        <lane id=":1015_9_0" index="0" speed="3.65" length="1.44" shape="2410.40,801.60 2409.20,800.80"/>
    </edge>
    <edge id=":1015_22" function="internal">
        <lane id=":1015_22_0" index="0" speed="9.26" length="14.34" shape="2405.44,800.89 2405.15,800.85 2401.40,798.60 2399.15,794.85 2398.40,789.60"/>
    </edge>
    <edge id=":1015_23" function="internal">
        <lane id=":1015_23_0" index="0" speed="3.65" length="3.23" shape="2409.20,800.80 2408.80,800.00 2409.20,799.20 2410.40,798.40"/>
    </edge>
    <edge id=":1015_10" function="internal">
        <lane id=":1015_10_0" index="0" speed="6.51" length="9.03" shape="2404.80,789.60 2405.15,792.05 2406.20,793.80 2407.95,794.85 2410.40,795.20"/>
    </edge>
    <edge id=":1015_11" function="internal">
        <lane id=":1015_11_0" index="0" speed="13.89" length="20.80" shape="2404.80,789.60 2404.80,810.40"/>
        <lane id=":1015_11_1" index="1" speed="13.89" length="20.80" shape="2401.60,789.60 2401.60,810.40"/>
    </edge>
    <edge id=":1015_13" function="internal">
        <lane id=":1015_13_0" index="0" speed="9.26" length="5.01" shape="2401.60,789.60 2400.89,794.56"/>
    </edge>
    <edge id=":1015_14" function="internal">
        <lane id=":1015_14_0" index="0" speed="3.65" length="1.44" shape="2401.60,789.60 2400.80,790.80"/>
    </edge>
    <edge id=":1015_24" function="internal">
        <lane id=":1015_24_0" index="0" speed="9.26" length="14.34" shape="2400.89,794.56 2400.85,794.85 2398.60,798.60 2394.85,800.85 2389.60,801.60"/>
    </edge>
    <edge id=":1015_25" function="internal">
        <lane id=":1015_25_0" index="0" speed="3.65" length="3.23" shape="2400.80,790.80 2400.00,791.20 2399.20,790.80 2398.40,789.60"/>
    </edge>
    <edge id=":1015_15" function="internal">
        <lane id=":1015_15_0" index="0" speed="6.51" length="9.03" shape="2389.60,795.20 2392.05,794.85 2393.80,793.80 2394.85,792.05 2395.20,789.60"/>
    </edge>
    <edge id=":1015_16" function="internal">
        <lane id=":1015_16_0" index="0" speed="13.89" length="20.80" shape="2389.60,795.20 2410.40,795.20"/>
        <lane id=":1015_16_1" index="1" speed="13.89" length="20.80" shape="2389.60,798.40 2410.40,798.40"/>
    </edge>
    <edge id=":1015_18" function="internal">
        <lane id=":1015_18_0" index="0" speed="9.26" length="5.01" shape="2389.60,798.40 2394.56,799.11"/>
    </edge>
    <edge id=":1015_19" function="internal">
        <lane id=":1015_19_0" index="0" speed="3.65" length="1.44" shape="2389.60,798.40 2390.80,799.20"/>
    </edge>
    <edge id=":1015_26" function="internal">
        <lane id=":1015_26_0" index="0" speed="9.26" length="14.34" shape="2394.56,799.11 2394.85,799.15 2398.60,801.40 2400.85,805.15 2401.60,810.40"/>
    </edge>
    <edge id=":1015_27" function="internal">
        <lane id=":1015_27_0" index="0" speed="3.65" length="3.23" shape="2390.80,799.20 2391.20,800.00 2390.80,800.80 2389.60,801.60"/>
    </edge>
    <edge id=":1028_0" function="internal">
        <lane id=":1028_0_0" index="0" speed="3.90" length="2.58" shape="2595.20,806.40 2595.10,805.70 2594.80,805.20 2594.30,804.90 2593.60,804.80"/>
        <lane id=":1028_0_1" index="1" speed="6.08" length="7.74" shape="2598.40,806.40 2598.10,804.30 2597.20,802.80 2595.70,801.90 2593.60,801.60"/>
    </edge>
    <edge id=":1028_2" function="internal">
        <lane id=":1028_2_0" index="0" speed="8.96" length="18.06" shape="2593.60,795.20 2598.50,795.90 2602.00,798.00 2604.10,801.50 2604.80,806.40"/>
        <lane id=":1028_2_1" index="1" speed="7.66" length="12.90" shape="2593.60,798.40 2597.10,798.90 2599.60,800.40 2601.10,802.90 2601.60,806.40"/>
    </edge>
    <edge id=":103_0" function="internal">
        <lane id=":103_0_0" index="0" speed="3.90" length="2.58" shape="995.20,1206.40 995.10,1205.70 994.80,1205.20 994.30,1204.90 993.60,1204.80"/>
        <lane id=":103_0_1" index="1" speed="6.08" length="7.74" shape="998.40,1206.40 998.10,1204.30 997.20,1202.80 995.70,1201.90 993.60,1201.60"/>
    </edge>
    <edge id=":103_2" function="internal">
        <lane id=":103_2_0" index="0" speed="8.96" length="18.06" shape="993.60,1195.20 998.50,1195.90 1002.00,1198.00 1004.10,1201.50 1004.80,1206.40"/>
        <lane id=":103_2_1" index="1" speed="7.66" length="12.90" shape="993.60,1198.40 997.10,1198.90 999.60,1200.40 1001.10,1202.90 1001.60,1206.40"/>
    </edge>
    <edge id=":1032_0" function="internal">
        <lane id=":1032_0_0" index="0" speed="3.90" length="2.58" shape="2395.20,606.40 2395.10,605.70 2394.80,605.20 2394.30,604.90 2393.60,604.80"/>
        <lane id=":1032_0_1" index="1" speed="6.08" length="7.74" shape="2398.40,606.40 2398.10,604.30 2397.20,602.80 2395.70,601.90 2393.60,601.60"/>
    </edge>
    <edge id=":1032_2" function="internal">
        <lane id=":1032_2_0" index="0" speed="8.96" length="18.06" shape="2393.60,595.20 2398.50,595.90 2402.00,598.00 2404.10,601.50 2404.80,606.40"/>
        <lane id=":1032_2_1" index="1" speed="7.66" length="12.90" shape="2393.60,598.40 2397.10,598.90 2399.60,600.40 2401.10,602.90 2401.60,606.40"/>
    </edge>
    <edge id=":105_0" function="internal">
        <lane id=":105_0_0" index="0" speed="9.84" length="8.80" shape="602.65,1204.80 600.42,1204.59 598.35,1203.98 596.46,1202.95 594.73,1201.52"/>
        <lane id=":105_0_1" index="1" speed="8.46" length="6.40" shape="602.65,1201.60 600.78,1201.54 599.49,1201.24 598.36,1200.54 596.99,1199.26"/>
    </edge>
    <edge id=":105_2" function="internal">
        <lane id=":105_2_0" index="0" speed="4.22" length="1.28" shape="601.52,1194.73 601.79,1194.99 602.02,1195.13 602.28,1195.19 602.65,1195.20"/>
        <lane id=":105_2_1" index="1" speed="6.69" length="3.84" shape="599.26,1196.99 600.08,1197.76 600.75,1198.18 601.53,1198.36 602.65,1198.40"/>
    </edge>
    <edge id=":1052_0" function="internal">
        <lane id=":1052_0_0" index="0" speed="13.89" length="0.10" shape="2595.20,1000.00 2595.20,1000.00"/>
        <lane id=":1052_0_1" index="1" speed="13.89" length="0.10" shape="2598.40,1000.00 2598.40,1000.00"/>
    </edge>
    <edge id=":1052_2" function="internal">
        <lane id=":1052_2_0" index="0" speed="13.89" length="0.10" shape="2604.80,1000.00 2604.80,1000.00"/>
        <lane id=":1052_2_1" index="1" speed="13.89" length="0.10" shape="2601.60,1000.00 2601.60,1000.00"/>
    </edge>
    <edge id=":1063_0" function="internal">
        <lane id=":1063_0_0" index="0" speed="8.96" length="18.06" shape="2606.40,1204.80 2601.50,1204.10 2598.00,1202.00 2595.90,1198.50 2595.20,1193.60"/>
        <lane id=":1063_0_1" index="1" speed="7.66" length="12.90" shape="2606.40,1201.60 2602.90,1201.10 2600.40,1199.60 2598.90,1197.10 2598.40,1193.60"/>
    </edge>
    <edge id=":1063_2" function="internal">
        <lane id=":1063_2_0" index="0" speed="3.90" length="2.58" shape="2604.80,1193.60 2604.90,1194.30 2605.20,1194.80 2605.70,1195.10 2606.40,1195.20"/>
        <lane id=":1063_2_1" index="1" speed="6.08" length="7.74" shape="2601.60,1193.60 2601.90,1195.70 2602.80,1197.20 2604.30,1198.10 2606.40,1198.40"/>
    </edge>
    <edge id=":1071_0" function="internal">
        <lane id=":1071_0_0" index="0" speed="13.89" length="20.80" shape="210.40,1804.80 189.60,1804.80"/>
        <lane id=":1071_0_1" index="1" speed="13.89" length="20.80" shape="210.40,1801.60 189.60,1801.60"/>
    </edge>
    <edge id=":1071_2" function="internal">
        <lane id=":1071_2_0" index="0" speed="9.26" length="5.01" shape="210.40,1801.60 205.44,1800.89"/>
    </edge>
    <edge id=":1071_3" function="internal">
        <lane id=":1071_3_0" index="0" speed="3.65" length="1.44" shape="210.40,1801.60 209.20,1800.80"/>
    </edge>
    <edge id=":1071_12" function="internal">
        <lane id=":1071_12_0" index="0" speed="9.26" length="14.34" shape="205.44,1800.89 205.15,1800.85 201.40,1798.60 199.15,1794.85 198.40,1789.60"/>
    </edge>
    <edge id=":1071_13" function="internal">
        <lane id=":1071_13_0" index="0" speed="3.65" length="3.23" shape="209.20,1800.80 208.80,1800.00 209.20,1799.20 210.40,1798.40"/>
    </edge>
    <edge id=":1071_4" function="internal">
        <lane id=":1071_4_0" index="0" speed="6.51" length="9.03" shape="204.80,1789.60 205.15,1792.05 206.20,1793.80 207.95,1794.85 210.40,1795.20"/>
        <lane id=":1071_4_1" index="1" speed="8.00" length="14.19" shape="201.60,1789.60 202.15,1793.45 203.80,1796.20 206.55,1797.85 210.40,1798.40"/>
    </edge>
    <edge id=":1071_6" function="internal">
        <lane id=":1071_6_0" index="0" speed="9.26" length="19.35" shape="201.60,1789.60 200.85,1794.85 198.60,1798.60 194.85,1800.85 189.60,1801.60"/>
    </edge>
    <edge id=":1071_7" function="internal">
        <lane id=":1071_7_0" index="0" speed="3.65" length="2.34" shape="201.60,1789.60 200.80,1790.80 200.00,1791.20"/>
    </edge>
    <edge id=":1071_14" function="internal">
        <lane id=":1071_14_0" index="0" speed="3.65" length="2.34" shape="200.00,1791.20 199.20,1790.80 198.40,1789.60"/>
    </edge>
    <edge id=":1071_8" function="internal">
        <lane id=":1071_8_0" index="0" speed="6.51" length="9.03" shape="189.60,1795.20 192.05,1794.85 193.80,1793.80 194.85,1792.05 195.20,1789.60"/>
    </edge>
    <edge id=":1071_9" function="internal">
        <lane id=":1071_9_0" index="0" speed="13.89" length="20.80" shape="189.60,1795.20 210.40,1795.20"/>
        <lane id=":1071_9_1" index="1" speed="13.89" length="20.80" shape="189.60,1798.40 210.40,1798.40"/>
    </edge>
    <edge id=":1071_11" function="internal">
        <lane id=":1071_11_0" index="0" speed="3.65" length="1.44" shape="189.60,1798.40 190.80,1799.20"/>
    </edge>
    <edge id=":1071_15" function="internal">
        <lane id=":1071_15_0" index="0" speed="3.65" length="3.23" shape="190.80,1799.20 191.20,1800.00 190.80,1800.80 189.60,1801.60"/>
    </edge>
    <edge id=":1076_0" function="internal">
        <lane id=":1076_0_0" index="0" speed="8.96" length="18.06" shape="2804.80,1193.60 2804.10,1198.50 2802.00,1202.00 2798.50,1204.10 2793.60,1204.80"/>
        <lane id=":1076_0_1" index="1" speed="7.66" length="12.90" shape="2801.60,1193.60 2801.10,1197.10 2799.60,1199.60 2797.10,1201.10 2793.60,1201.60"/>
    </edge>
    <edge id=":1076_2" function="internal">
        <lane id=":1076_2_0" index="0" speed="3.90" length="2.58" shape="2793.60,1195.20 2794.30,1195.10 2794.80,1194.80 2795.10,1194.30 2795.20,1193.60"/>
        <lane id=":1076_2_1" index="1" speed="6.08" length="7.74" shape="2793.60,1198.40 2795.70,1198.10 2797.20,1197.20 2798.10,1195.70 2798.40,1193.60"/>
    </edge>
    <edge id=":1086_0" function="internal">
        <lane id=":1086_0_0" index="0" speed="3.65" length="4.67" shape="0.00,1801.60 -1.20,1800.80 -1.60,1800.00 -1.20,1799.20 0.00,1798.40"/>
    </edge>
    <edge id=":1088_0" function="internal">
        <lane id=":1088_0_0" index="0" speed="3.65" length="4.67" shape="400.00,1798.40 401.20,1799.20 401.60,1800.00 401.20,1800.80 400.00,1801.60"/>
    </edge>
    <edge id=":1093_0" function="internal">
        <lane id=":1093_0_0" index="0" speed="8.96" length="18.06" shape="2795.20,1006.40 2795.90,1001.50 2798.00,998.00 2801.50,995.90 2806.40,995.20"/>
        <lane id=":1093_0_1" index="1" speed="7.66" length="12.90" shape="2798.40,1006.40 2798.90,1002.90 2800.40,1000.40 2802.90,998.90 2806.40,998.40"/>
    </edge>
    <edge id=":1093_2" function="internal">
        <lane id=":1093_2_0" index="0" speed="3.90" length="2.58" shape="2806.40,1004.80 2805.70,1004.90 2805.20,1005.20 2804.90,1005.70 2804.80,1006.40"/>
        <lane id=":1093_2_1" index="1" speed="6.08" length="7.74" shape="2806.40,1001.60 2804.30,1001.90 2802.80,1002.80 2801.90,1004.30 2801.60,1006.40"/>
    </edge>
    <edge id=":1097_0" function="internal">
        <lane id=":1097_0_0" index="0" speed="3.65" length="4.67" shape="998.40,0.00 999.20,-1.20 1000.00,-1.60 1000.80,-1.20 1001.60,-0.00"/>
    </edge>
    <edge id=":1112_0" function="internal">
        <lane id=":1112_0_0" index="0" speed="8.96" length="18.06" shape="2195.20,606.40 2195.90,601.50 2198.00,598.00 2201.50,595.90 2206.40,595.20"/>
        <lane id=":1112_0_1" index="1" speed="7.66" length="12.90" shape="2198.40,606.40 2198.90,602.90 2200.40,600.40 2202.90,598.90 2206.40,598.40"/>
    </edge>
    <edge id=":1112_2" function="internal">
        <lane id=":1112_2_0" index="0" speed="3.90" length="2.58" shape="2206.40,604.80 2205.70,604.90 2205.20,605.20 2204.90,605.70 2204.80,606.40"/>
        <lane id=":1112_2_1" index="1" speed="6.08" length="7.74" shape="2206.40,601.60 2204.30,601.90 2202.80,602.80 2201.90,604.30 2201.60,606.40"/>
    </edge>
    <edge id=":1121_0" function="internal">
        <lane id=":1121_0_0" index="0" speed="3.65" length="4.67" shape="3000.00,998.40 3001.20,999.20 3001.60,1000.00 3001.20,1000.80 3000.00,1001.60"/>
    </edge>
    <edge id=":113_0" function="internal">
        <lane id=":113_0_0" index="0" speed="6.51" length="9.03" shape="995.20,1410.40 994.85,1407.95 993.80,1406.20 992.05,1405.15 989.60,1404.80"/>
    </edge>
    <edge id=":113_1" function="internal">
        <lane id=":113_1_0" index="0" speed="13.89" length="20.80" shape="995.20,1410.40 995.20,1389.60"/>
        <lane id=":113_1_1" index="1" speed="13.89" length="20.80" shape="998.40,1410.40 998.40,1389.60"/>
    </edge>
    <edge id=":113_3" function="internal">
        <lane id=":113_3_0" index="0" speed="9.26" length="5.01" shape="998.40,1410.40 999.11,1405.44"/>
    </edge>
    <edge id=":113_4" function="internal">
        <lane id=":113_4_0" index="0" speed="3.65" length="1.44" shape="998.40,1410.40 999.20,1409.20"/>
    </edge>
    <edge id=":113_20" function="internal">
        <lane id=":113_20_0" index="0" speed="9.26" length="14.34" shape="999.11,1405.44 999.15,1405.15 1001.40,1401.40 1005.15,1399.15 1010.40,1398.40"/>
    </edge>
    <edge id=":113_21" function="internal">
        <lane id=":113_21_0" index="0" speed="3.65" length="3.23" shape="999.20,1409.20 1000.00,1408.80 1000.80,1409.20 1001.60,1410.40"/>
    </edge>
    <edge id=":113_5" function="internal">
        <lane id=":113_5_0" index="0" speed="6.51" length="9.03" shape="1010.40,1404.80 1007.95,1405.15 1006.20,1406.20 1005.15,1407.95 1004.80,1410.40"/>
    </edge>
    <edge id=":113_6" function="internal">
        <lane id=":113_6_0" index="0" speed="13.89" length="20.80" shape="1010.40,1404.80 989.60,1404.80"/>
        <lane id=":113_6_1" index="1" speed="13.89" length="20.80" shape="1010.40,1401.60 989.60,1401.60"/>
    </edge>
    <edge id=":113_8" function="internal">
        <lane id=":113_8_0" index="0" speed="9.26" length="5.01" shape="1010.40,1401.60 1005.44,1400.89"/>
    </edge>
    <edge id=":113_9" function="internal">
        <lane id=":113_9_0" index="0" speed="3.65" length="1.44" shape="1010.40,1401.60 1009.20,1400.80"/>
    </edge>
    <edge id=":113_22" function="internal">
        <lane id=":113_22_0" index="0" speed="9.26" length="14.34" shape="1005.44,1400.89 1005.15,1400.85 1001.40,1398.60 999.15,1394.85 998.40,1389.60"/>
    </edge>
    <edge id=":113_23" function="internal">
        <lane id=":113_23_0" index="0" speed="3.65" length="3.23" shape="1009.20,1400.80 1008.80,1400.00 1009.20,1399.20 1010.40,1398.40"/>
    </edge>
    <edge id=":113_10" function="internal">
        <lane id=":113_10_0" index="0" speed="6.51" length="9.03" shape="1004.80,1389.60 1005.15,1392.05 1006.20,1393.80 1007.95,1394.85 1010.40,1395.20"/>
    </edge>
    <edge id=":113_11" function="internal">