<?xml version="1.0" encoding="UTF-8"?>

<!-- generated on 2025-04-22 00:35:49 by Eclipse SUMO netgenerate Version 1.22.0
<netgenerateConfiguration xmlns:xsi="http://www.w3.org/2001/XMLSchema-instance" xsi:noNamespaceSchemaLocation="http://sumo.dlr.de/xsd/netgenerateConfiguration.xsd">

    <random_network>
        <rand value="true"/>
        <rand.iterations value="70"/>
        <rand.max-distance value="1000"/>
        <rand.min-distance value="150"/>
        <rand.min-angle value="90"/>
        <rand.neighbor-dist1 value="1.0"/>
        <rand.neighbor-dist2 value="10.0"/>
        <rand.neighbor-dist3 value="5.0"/>
        <rand.neighbor-dist4 value="5.0"/>
        <rand.neighbor-dist5 value="0.0"/>
        <rand.neighbor-dist6 value="0.0"/>
        <rand.grid value="true"/>
    </random_network>

    <output>
        <output-file value="learning_small.net.xml"/>
    </output>

    <building_defaults>
        <default.lanenumber value="2"/>
    </building_defaults>

    <tls_building>
        <tls.guess value="true"/>
    </tls_building>

</netgenerateConfiguration>
-->

<net version="1.20" junctionCornerDetail="5" limitTurnSpeed="5.50" xmlns:xsi="http://www.w3.org/2001/XMLSchema-instance" xsi:noNamespaceSchemaLocation="http://sumo.dlr.de/xsd/net_file.xsd">

    <location netOffset="1350.00,4350.00" convBoundary="0.00,0.00,3750.00,7800.00" origBoundary="-1350.00,-4350.00,2400.00,3450.00" projParameter="!"/>

    <edge id=":1_0" function="internal">
        <lane id=":1_0_0" index="0" speed="6.51" length="9.03" shape="1345.20,4360.40 1344.85,4357.95 1343.80,4356.20 1342.05,4355.15 1339.60,4354.80"/>
    </edge>
    <edge id=":1_1" function="internal">
        <lane id=":1_1_0" index="0" speed="13.89" length="20.80" shape="1345.20,4360.40 1345.20,4339.60"/>
        <lane id=":1_1_1" index="1" speed="13.89" length="20.80" shape="1348.40,4360.40 1348.40,4339.60"/>
    </edge>
    <edge id=":1_3" function="internal">
        <lane id=":1_3_0" index="0" speed="9.26" length="5.01" shape="1348.40,4360.40 1349.11,4355.44"/>
    </edge>
    <edge id=":1_4" function="internal">
        <lane id=":1_4_0" index="0" speed="3.65" length="1.44" shape="1348.40,4360.40 1349.20,4359.20"/>
    </edge>
    <edge id=":1_20" function="internal">
        <lane id=":1_20_0" index="0" speed="9.26" length="14.34" shape="1349.11,4355.44 1349.15,4355.15 1351.40,4351.40 1355.15,4349.15 1360.40,4348.40"/>
    </edge>
    <edge id=":1_21" function="internal">
        <lane id=":1_21_0" index="0" speed="3.65" length="3.23" shape="1349.20,4359.20 1350.00,4358.80 1350.80,4359.20 1351.60,4360.40"/>
    </edge>
    <edge id=":1_5" function="internal">
        <lane id=":1_5_0" index="0" speed="6.51" length="9.03" shape="1360.40,4354.80 1357.95,4355.15 1356.20,4356.20 1355.15,4357.95 1354.80,4360.40"/>
    </edge>
    <edge id=":1_6" function="internal">
        <lane id=":1_6_0" index="0" speed="13.89" length="20.80" shape="1360.40,4354.80 1339.60,4354.80"/>
        <lane id=":1_6_1" index="1" speed="13.89" length="20.80" shape="1360.40,4351.60 1339.60,4351.60"/>
    </edge>
    <edge id=":1_8" function="internal">
        <lane id=":1_8_0" index="0" speed="9.26" length="5.01" shape="1360.40,4351.60 1355.44,4350.89"/>
    </edge>
    <edge id=":1_9" function="internal">
        <lane id=":1_9_0" index="0" speed="3.65" length="1.44" shape="1360.40,4351.60 1359.20,4350.80"/>
    </edge>
    <edge id=":1_22" function="internal">
        <lane id=":1_22_0" index="0" speed="9.26" length="14.34" shape="1355.44,4350.89 1355.15,4350.85 1351.40,4348.60 1349.15,4344.85 1348.40,4339.60"/>
    </edge>
    <edge id=":1_23" function="internal">
        <lane id=":1_23_0" index="0" speed="3.65" length="3.23" shape="1359.20,4350.80 1358.80,4350.00 1359.20,4349.20 1360.40,4348.40"/>
    </edge>
    <edge id=":1_10" function="internal">
        <lane id=":1_10_0" index="0" speed="6.51" length="9.03" shape="1354.80,4339.60 1355.15,4342.05 1356.20,4343.80 1357.95,4344.85 1360.40,4345.20"/>
    </edge>
    <edge id=":1_11" function="internal">
        <lane id=":1_11_0" index="0" speed="13.89" length="20.80" shape="1354.80,4339.60 1354.80,4360.40"/>
        <lane id=":1_11_1" index="1" speed="13.89" length="20.80" shape="1351.60,4339.60 1351.60,4360.40"/>
    </edge>
    <edge id=":1_13" function="internal">
        <lane id=":1_13_0" index="0" speed="9.26" length="5.01" shape="1351.60,4339.60 1350.89,4344.56"/>
    </edge>
    <edge id=":1_14" function="internal">
        <lane id=":1_14_0" index="0" speed="3.65" length="1.44" shape="1351.60,4339.60 1350.80,4340.80"/>
    </edge>
    <edge id=":1_24" function="internal">
        <lane id=":1_24_0" index="0" speed="9.26" length="14.34" shape="1350.89,4344.56 1350.85,4344.85 1348.60,4348.60 1344.85,4350.85 1339.60,4351.60"/>
    </edge>
    <edge id=":1_25" function="internal">
        <lane id=":1_25_0" index="0" speed="3.65" length="3.23" shape="1350.80,4340.80 1350.00,4341.20 1349.20,4340.80 1348.40,4339.60"/>
    </edge>
    <edge id=":1_15" function="internal">
        <lane id=":1_15_0" index="0" speed="6.51" length="9.03" shape="1339.60,4345.20 1342.05,4344.85 1343.80,4343.80 1344.85,4342.05 1345.20,4339.60"/>
    </edge>
    <edge id=":1_16" function="internal">
        <lane id=":1_16_0" index="0" speed="13.89" length="20.80" shape="1339.60,4345.20 1360.40,4345.20"/>
        <lane id=":1_16_1" index="1" speed="13.89" length="20.80" shape="1339.60,4348.40 1360.40,4348.40"/>
    </edge>
    <edge id=":1_18" function="internal">
        <lane id=":1_18_0" index="0" speed="9.26" length="5.01" shape="1339.60,4348.40 1344.56,4349.11"/>
    </edge>
    <edge id=":1_19" function="internal">
        <lane id=":1_19_0" index="0" speed="3.65" length="1.44" shape="1339.60,4348.40 1340.80,4349.20"/>
    </edge>
    <edge id=":1_26" function="internal">
        <lane id=":1_26_0" index="0" speed="9.26" length="14.34" shape="1344.56,4349.11 1344.85,4349.15 1348.60,4351.40 1350.85,4355.15 1351.60,4360.40"/>
    </edge>
    <edge id=":1_27" function="internal">
        <lane id=":1_27_0" index="0" speed="3.65" length="3.23" shape="1340.80,4349.20 1341.20,4350.00 1340.80,4350.80 1339.60,4351.60"/>
    </edge>
    <edge id=":10_0" function="internal">
        <lane id=":10_0_0" index="0" speed="13.89" length="20.80" shape="1195.20,4360.40 1195.20,4339.60"/>
        <lane id=":10_0_1" index="1" speed="13.89" length="20.80" shape="1198.40,4360.40 1198.40,4339.60"/>
    </edge>
    <edge id=":10_2" function="internal">
        <lane id=":10_2_0" index="0" speed="9.26" length="5.01" shape="1198.40,4360.40 1199.11,4355.44"/>
    </edge>
    <edge id=":10_3" function="internal">
        <lane id=":10_3_0" index="0" speed="3.65" length="1.44" shape="1198.40,4360.40 1199.20,4359.20"/>
    </edge>
    <edge id=":10_12" function="internal">
        <lane id=":10_12_0" index="0" speed="9.26" length="14.34" shape="1199.11,4355.44 1199.15,4355.15 1201.40,4351.40 1205.15,4349.15 1210.40,4348.40"/>
    </edge>
    <edge id=":10_13" function="internal">
        <lane id=":10_13_0" index="0" speed="3.65" length="3.23" shape="1199.20,4359.20 1200.00,4358.80 1200.80,4359.20 1201.60,4360.40"/>
    </edge>
    <edge id=":10_4" function="internal">
        <lane id=":10_4_0" index="0" speed="6.51" length="9.03" shape="1210.40,4354.80 1207.95,4355.15 1206.20,4356.20 1205.15,4357.95 1204.80,4360.40"/>
        <lane id=":10_4_1" index="1" speed="8.00" length="14.19" shape="1210.40,4351.60 1206.55,4352.15 1203.80,4353.80 1202.15,4356.55 1201.60,4360.40"/>
    </edge>
    <edge id=":10_6" function="internal">
        <lane id=":10_6_0" index="0" speed="9.26" length="19.35" shape="1210.40,4351.60 1205.15,4350.85 1201.40,4348.60 1199.15,4344.85 1198.40,4339.60"/>
    </edge>
    <edge id=":10_7" function="internal">
        <lane id=":10_7_0" index="0" speed="3.65" length="2.34" shape="1210.40,4351.60 1209.20,4350.80 1208.80,4350.00"/>
    </edge>
    <edge id=":10_14" function="internal">
        <lane id=":10_14_0" index="0" speed="3.65" length="2.34" shape="1208.80,4350.00 1209.20,4349.20 1210.40,4348.40"/>
    </edge>
    <edge id=":10_8" function="internal">
        <lane id=":10_8_0" index="0" speed="6.51" length="9.03" shape="1204.80,4339.60 1205.15,4342.05 1206.20,4343.80 1207.95,4344.85 1210.40,4345.20"/>
    </edge>
    <edge id=":10_9" function="internal">
        <lane id=":10_9_0" index="0" speed="13.89" length="20.80" shape="1204.80,4339.60 1204.80,4360.40"/>
        <lane id=":10_9_1" index="1" speed="13.89" length="20.80" shape="1201.60,4339.60 1201.60,4360.40"/>
    </edge>
    <edge id=":10_11" function="internal">
        <lane id=":10_11_0" index="0" speed="3.65" length="1.44" shape="1201.60,4339.60 1200.80,4340.80"/>
    </edge>
    <edge id=":10_15" function="internal">
        <lane id=":10_15_0" index="0" speed="3.65" length="3.23" shape="1200.80,4340.80 1200.00,4341.20 1199.20,4340.80 1198.40,4339.60"/>
    </edge>
    <edge id=":1084_0" function="internal">
        <lane id=":1084_0_0" index="0" speed="13.89" length="0.10" shape="2545.20,6300.00 2545.20,6300.00"/>
        <lane id=":1084_0_1" index="1" speed="13.89" length="0.10" shape="2548.40,6300.00 2548.40,6300.00"/>
    </edge>
    <edge id=":1084_2" function="internal">
        <lane id=":1084_2_0" index="0" speed="13.89" length="0.10" shape="2554.80,6300.00 2554.80,6300.00"/>
        <lane id=":1084_2_1" index="1" speed="13.89" length="0.10" shape="2551.60,6300.00 2551.60,6300.00"/>
    </edge>
    <edge id=":1091_0" function="internal">
        <lane id=":1091_0_0" index="0" speed="12.12" length="4.48" shape="895.20,1651.51 895.22,1649.97 895.36,1648.90 895.71,1647.89 896.38,1646.50"/>
        <lane id=":1091_0_1" index="1" speed="10.31" length="4.48" shape="898.40,1651.51 898.42,1650.41 898.51,1649.65 898.77,1648.93 899.24,1647.93"/>
    </edge>
    <edge id=":1091_2" function="internal">
        <lane id=":1091_2_0" index="0" speed="13.89" length="1.49" shape="904.97,1650.80 904.87,1650.99 904.82,1651.14 904.80,1651.29 904.80,1651.51"/>
        <lane id=":1091_2_1" index="1" speed="8.09" length="1.49" shape="902.11,1649.36 901.82,1649.96 901.67,1650.39 901.61,1650.85 901.60,1651.51"/>
    </edge>
    <edge id=":111_0" function="internal">
        <lane id=":111_0_0" index="0" speed="8.96" length="18.06" shape="756.40,3904.80 751.50,3904.10 748.00,3902.00 745.90,3898.50 745.20,3893.60"/>
        <lane id=":111_0_1" index="1" speed="7.66" length="12.90" shape="756.40,3901.60 752.90,3901.10 750.40,3899.60 748.90,3897.10 748.40,3893.60"/>
    </edge>
    <edge id=":111_2" function="internal">
        <lane id=":111_2_0" index="0" speed="3.90" length="2.58" shape="754.80,3893.60 754.90,3894.30 755.20,3894.80 755.70,3895.10 756.40,3895.20"/>
        <lane id=":111_2_1" index="1" speed="6.08" length="7.74" shape="751.60,3893.60 751.90,3895.70 752.80,3897.20 754.30,3898.10 756.40,3898.40"/>
    </edge>
    <edge id=":1113_0" function="internal">
        <lane id=":1113_0_0" index="0" speed="8.96" length="18.06" shape="1045.20,1206.40 1045.90,1201.50 1048.00,1198.00 1051.50,1195.90 1056.40,1195.20"/>
        <lane id=":1113_0_1" index="1" speed="7.66" length="12.90" shape="1048.40,1206.40 1048.90,1202.90 1050.40,1200.40 1052.90,1198.90 1056.40,1198.40"/>
    </edge>
    <edge id=":1113_2" function="internal">
        <lane id=":1113_2_0" index="0" speed="3.90" length="2.58" shape="1056.40,1204.80 1055.70,1204.90 1055.20,1205.20 1054.90,1205.70 1054.80,1206.40"/>
        <lane id=":1113_2_1" index="1" speed="6.08" length="7.74" shape="1056.40,1201.60 1054.30,1201.90 1052.80,1202.80 1051.90,1204.30 1051.60,1206.40"/>
    </edge>
    <edge id=":1151_0" function="internal">
        <lane id=":1151_0_0" index="0" speed="3.65" length="4.67" shape="2548.40,5400.00 2549.20,5398.80 2550.00,5398.40 2550.80,5398.80 2551.60,5400.00"/>
    </edge>
    <edge id=":1171_0" function="internal">
        <lane id=":1171_0_0" index="0" speed="8.96" length="18.06" shape="906.40,3754.80 901.50,3754.10 898.00,3752.00 895.90,3748.50 895.20,3743.60"/>
        <lane id=":1171_0_1" index="1" speed="7.66" length="12.90" shape="906.40,3751.60 902.90,3751.10 900.40,3749.60 898.90,3747.10 898.40,3743.60"/>
    </edge>
    <edge id=":1171_2" function="internal">
        <lane id=":1171_2_0" index="0" speed="3.90" length="2.58" shape="904.80,3743.60 904.90,3744.30 905.20,3744.80 905.70,3745.10 906.40,3745.20"/>
        <lane id=":1171_2_1" index="1" speed="6.08" length="7.74" shape="901.60,3743.60 901.90,3745.70 902.80,3747.20 904.30,3748.10 906.40,3748.40"/>
    </edge>
    <edge id=":1194_0" function="internal">
        <lane id=":1194_0_0" index="0" speed="6.51" length="9.03" shape="1795.20,1210.40 1794.85,1207.95 1793.80,1206.20 1792.05,1205.15 1789.60,1204.80"/>
    </edge>
    <edge id=":1194_1" function="internal">
        <lane id=":1194_1_0" index="0" speed="13.89" length="20.80" shape="1795.20,1210.40 1795.20,1189.60"/>
        <lane id=":1194_1_1" index="1" speed="13.89" length="20.80" shape="1798.40,1210.40 1798.40,1189.60"/>
    </edge>
    <edge id=":1194_3" function="internal">
        <lane id=":1194_3_0" index="0" speed="9.26" length="5.01" shape="1798.40,1210.40 1799.11,1205.44"/>
    </edge>
    <edge id=":1194_4" function="internal">
        <lane id=":1194_4_0" index="0" speed="3.65" length="1.44" shape="1798.40,1210.40 1799.20,1209.20"/>
    </edge>
    <edge id=":1194_20" function="internal">
        <lane id=":1194_20_0" index="0" speed="9.26" length="14.34" shape="1799.11,1205.44 1799.15,1205.15 1801.40,1201.40 1805.15,1199.15 1810.40,1198.40"/>
    </edge>
    <edge id=":1194_21" function="internal">
        <lane id=":1194_21_0" index="0" speed="3.65" length="3.23" shape="1799.20,1209.20 1800.00,1208.80 1800.80,1209.20 1801.60,1210.40"/>
    </edge>
    <edge id=":1194_5" function="internal">
        <lane id=":1194_5_0" index="0" speed="6.51" length="9.03" shape="1810.40,1204.80 1807.95,1205.15 1806.20,1206.20 1805.15,1207.95 1804.80,1210.40"/>
    </edge>
    <edge id=":1194_6" function="internal">
        <lane id=":1194_6_0" index="0" speed="13.89" length="20.80" shape="1810.40,1204.80 1789.60,1204.80"/>
        <lane id=":1194_6_1" index="1" speed="13.89" length="20.80" shape="1810.40,1201.60 1789.60,1201.60"/>
    </edge>
    <edge id=":1194_8" function="internal">
        <lane id=":1194_8_0" index="0" speed="9.26" length="5.01" shape="1810.40,1201.60 1805.44,1200.89"/>
    </edge>
    <edge id=":1194_9" function="internal">
        <lane id=":1194_9_0" index="0" speed="3.65" length="1.44" shape="1810.40,1201.60 1809.20,1200.80"/>
    </edge>
    <edge id=":1194_22" function="internal">
        <lane id=":1194_22_0" index="0" speed="9.26" length="14.34" shape="1805.44,1200.89 1805.15,1200.85 1801.40,1198.60 1799.15,1194.85 1798.40,1189.60"/>
    </edge>
    <edge id=":1194_23" function="internal">
        <lane id=":1194_23_0" index="0" speed="3.65" length="3.23" shape="1809.20,1200.80 1808.80,1200.00 1809.20,1199.20 1810.40,1198.40"/>
    </edge>
    <edge id=":1194_10" function="internal">
        <lane id=":1194_10_0" index="0" speed="6.51" length="9.03" shape="1804.80,1189.60 1805.15,1192.05 1806.20,1193.80 1807.95,1194.85 1810.40,1195.20"/>
    </edge>
    <edge id=":1194_11" function="internal">
        <lane id=":1194_11_0" index="0" speed="13.89" length="20.80" shape="1804.80,1189.60 1804.80,1210.40"/>
        <lane id=":1194_11_1" index="1" speed="13.89" length="20.80" shape="1801.60,1189.60 1801.60,1210.40"/>
    </edge>
    <edge id=":1194_13" function="internal">
        <lane id=":1194_13_0" index="0" speed="9.26" length="5.01" shape="1801.60,1189.60 1800.89,1194.56"/>
    </edge>
    <edge id=":1194_14" function="internal">
        <lane id=":1194_14_0" index="0" speed="3.65" length="1.44" shape="1801.60,1189.60 1800.80,1190.80"/>
    </edge>
    <edge id=":1194_24" function="internal">
        <lane id=":1194_24_0" index="0" speed="9.26" length="14.34" shape="1800.89,1194.56 1800.85,1194.85 1798.60,1198.60 1794.85,1200.85 1789.60,1201.60"/>
    </edge>
    <edge id=":1194_25" function="internal">
        <lane id=":1194_25_0" index="0" speed="3.65" length="3.23" shape="1800.80,1190.80 1800.00,1191.20 1799.20,1190.80 1798.40,1189.60"/>
    </edge>
    <edge id=":1194_15" function="internal">
        <lane id=":1194_15_0" index="0" speed="6.51" length="9.03" shape="1789.60,1195.20 1792.05,1194.85 1793.80,1193.80 1794.85,1192.05 1795.20,1189.60"/>
    </edge>
    <edge id=":1194_16" function="internal">
        <lane id=":1194_16_0" index="0" speed="13.89" length="20.80" shape="1789.60,1195.20 1810.40,1195.20"/>
        <lane id=":1194_16_1" index="1" speed="13.89" length="20.80" shape="1789.60,1198.40 1810.40,1198.40"/>
    </edge>
    <edge id=":1194_18" function="internal">
        <lane id=":1194_18_0" index="0" speed="9.26" length="5.01" shape="1789.60,1198.40 1794.56,1199.11"/>
    </edge>
    <edge id=":1194_19" function="internal">
        <lane id=":1194_19_0" index="0" speed="3.65" length="1.44" shape="1789.60,1198.40 1790.80,1199.20"/>
    </edge>
    <edge id=":1194_26" function="internal">
        <lane id=":1194_26_0" index="0" speed="9.26" length="14.34" shape="1794.56,1199.11 1794.85,1199.15 1798.60,1201.40 1800.85,1205.15 1801.60,1210.40"/>
    </edge>
    <edge id=":1194_27" function="internal">
        <lane id=":1194_27_0" index="0" speed="3.65" length="3.23" shape="1790.80,1199.20 1791.20,1200.00 1790.80,1200.80 1789.60,1201.60"/>
    </edge>
    <edge id=":1264_0" function="internal">
        <lane id=":1264_0_0" index="0" speed="3.65" length="4.67" shape="1050.00,3748.40 1051.20,3749.20 1051.60,3750.00 1051.20,3750.80 1050.00,3751.60"/>
    </edge>
    <edge id=":1282_0" function="internal">
        <lane id=":1282_0_0" index="0" speed="3.65" length="4.67" shape="3750.00,4948.40 3751.20,4949.20 3751.60,4950.00 3751.20,4950.80 3750.00,4951.60"/>
    </edge>
    <edge id=":14_0" function="internal">
        <lane id=":14_0_0" index="0" speed="8.96" length="18.06" shape="1354.80,5243.60 1354.10,5248.50 1352.00,5252.00 1348.50,5254.10 1343.60,5254.80"/>
        <lane id=":14_0_1" index="1" speed="7.66" length="12.90" shape="1351.60,5243.60 1351.10,5247.10 1349.60,5249.60 1347.10,5251.10 1343.60,5251.60"/>
    </edge>
    <edge id=":14_2" function="internal">
        <lane id=":14_2_0" index="0" speed="3.90" length="2.58" shape="1343.60,5245.20 1344.30,5245.10 1344.80,5244.80 1345.10,5244.30 1345.20,5243.60"/>
        <lane id=":14_2_1" index="1" speed="6.08" length="7.74" shape="1343.60,5248.40 1345.70,5248.10 1347.20,5247.20 1348.10,5245.70 1348.40,5243.60"/>
    </edge>
    <edge id=":1417_0" function="internal">
        <lane id=":1417_0_0" index="0" speed="3.65" length="4.67" shape="0.00,2401.60 -1.20,2400.80 -1.60,2400.00 -1.20,2399.20 0.00,2398.40"/>
    </edge>
    <edge id=":1423_0" function="internal">
        <lane id=":1423_0_0" index="0" speed="3.65" length="4.67" shape="1800.00,3451.60 1798.80,3450.80 1798.40,3450.00 1798.80,3449.20 1800.00,3448.40"/>
    </edge>
    <edge id=":1430_0" function="internal">
        <lane id=":1430_0_0" index="0" speed="6.51" length="9.03" shape="2545.20,7060.40 2544.85,7057.95 2543.80,7056.20 2542.05,7055.15 2539.60,7054.80"/>
    </edge>
    <edge id=":1430_1" function="internal">
        <lane id=":1430_1_0" index="0" speed="13.89" length="20.80" shape="2545.20,7060.40 2545.20,7039.60"/>
        <lane id=":1430_1_1" index="1" speed="13.89" length="20.80" shape="2548.40,7060.40 2548.40,7039.60"/>
    </edge>
    <edge id=":1430_3" function="internal">
        <lane id=":1430_3_0" index="0" speed="3.65" length="1.44" shape="2548.40,7060.40 2549.20,7059.20"/>
    </edge>
    <edge id=":1430_12" function="internal">
        <lane id=":1430_12_0" index="0" speed="3.65" length="3.23" shape="2549.20,7059.20 2550.00,7058.80 2550.80,7059.20 2551.60,7060.40"/>
    </edge>
    <edge id=":1430_4" function="internal">
        <lane id=":1430_4_0" index="0" speed="13.89" length="20.80" shape="2554.80,7039.60 2554.80,7060.40"/>
        <lane id=":1430_4_1" index="1" speed="13.89" length="20.80" shape="2551.60,7039.60 2551.60,7060.40"/>
    </edge>
    <edge id=":1430_6" function="internal">
        <lane id=":1430_6_0" index="0" speed="9.26" length="5.01" shape="2551.60,7039.60 2550.89,7044.56"/>
    </edge>
    <edge id=":1430_7" function="internal">
        <lane id=":1430_7_0" index="0" speed="3.65" length="1.44" shape="2551.60,7039.60 2550.80,7040.80"/>
    </edge>
    <edge id=":1430_13" function="internal">
        <lane id=":1430_13_0" index="0" speed="9.26" length="14.34" shape="2550.89,7044.56 2550.85,7044.85 2548.60,7048.60 2544.85,7050.85 2539.60,7051.60"/>
    </edge>
    <edge id=":1430_14" function="internal">
        <lane id=":1430_14_0" index="0" speed="3.65" length="3.23" shape="2550.80,7040.80 2550.00,7041.20 2549.20,7040.80 2548.40,7039.60"/>
    </edge>
    <edge id=":1430_8" function="internal">
        <lane id=":1430_8_0" index="0" speed="6.51" length="9.03" shape="2539.60,7045.20 2542.05,7044.85 2543.80,7043.80 2544.85,7042.05 2545.20,7039.60"/>
        <lane id=":1430_8_1" index="1" speed="8.00" length="14.19" shape="2539.60,7048.40 2543.45,7047.85 2546.20,7046.20 2547.85,7043.45 2548.40,7039.60"/>
    </edge>
    <edge id=":1430_10" function="internal">
        <lane id=":1430_10_0" index="0" speed="9.26" length="19.35" shape="2539.60,7048.40 2544.85,7049.15 2548.60,7051.40 2550.85,7055.15 2551.60,7060.40"/>
    </edge>
    <edge id=":1430_11" function="internal">
        <lane id=":1430_11_0" index="0" speed="3.65" length="2.34" shape="2539.60,7048.40 2540.80,7049.20 2541.20,7050.00"/>
    </edge>
    <edge id=":1430_15" function="internal">
        <lane id=":1430_15_0" index="0" speed="3.65" length="2.34" shape="2541.20,7050.00 2540.80,7050.80 2539.60,7051.60"/>
    </edge>
    <edge id=":1452_0" function="internal">
        <lane id=":1452_0_0" index="0" speed="6.51" length="9.03" shape="2545.20,7660.40 2544.85,7657.95 2543.80,7656.20 2542.05,7655.15 2539.60,7654.80"/>
    </edge>
    <edge id=":1452_1" function="internal">
        <lane id=":1452_1_0" index="0" speed="13.89" length="20.80" shape="2545.20,7660.40 2545.20,7639.60"/>
        <lane id=":1452_1_1" index="1" speed="13.89" length="20.80" shape="2548.40,7660.40 2548.40,7639.60"/>
    </edge>
    <edge id=":1452_3" function="internal">
        <lane id=":1452_3_0" index="0" speed="9.26" length="5.01" shape="2548.40,7660.40 2549.11,7655.44"/>
    </edge>
    <edge id=":1452_4" function="internal">
        <lane id=":1452_4_0" index="0" speed="3.65" length="1.44" shape="2548.40,7660.40 2549.20,7659.20"/>
    </edge>
    <edge id=":1452_20" function="internal">
        <lane id=":1452_20_0" index="0" speed="9.26" length="14.34" shape="2549.11,7655.44 2549.15,7655.15 2551.40,7651.40 2555.15,7649.15 2560.40,7648.40"/>
    </edge>
    <edge id=":1452_21" function="internal">
        <lane id=":1452_21_0" index="0" speed="3.65" length="3.23" shape="2549.20,7659.20 2550.00,7658.80 2550.80,7659.20 2551.60,7660.40"/>
    </edge>
    <edge id=":1452_5" function="internal">
        <lane id=":1452_5_0" index="0" speed="6.51" length="9.03" shape="2560.40,7654.80 2557.95,7655.15 2556.20,7656.20 2555.15,7657.95 2554.80,7660.40"/>
    </edge>
    <edge id=":1452_6" function="internal">
        <lane id=":1452_6_0" index="0" speed="13.89" length="20.80" shape="2560.40,7654.80 2539.60,7654.80"/>
        <lane id=":1452_6_1" index="1" speed="13.89" length="20.80" shape="2560.40,7651.60 2539.60,7651.60"/>
    </edge>
    <edge id=":1452_8" function="internal">
        <lane id=":1452_8_0" index="0" speed="9.26" length="5.01" shape="2560.40,7651.60 2555.44,7650.89"/>
    </edge>
    <edge id=":1452_9" function="internal">
        <lane id=":1452_9_0" index="0" speed="3.65" length="1.44" shape="2560.40,7651.60 2559.20,7650.80"/>
    </edge>
    <edge id=":1452_22" function="internal">
        <lane id=":1452_22_0" index="0" speed="9.26" length="14.34" shape="2555.44,7650.89 2555.15,7650.85 2551.40,7648.60 2549.15,7644.85 2548.40,7639.60"/>
    </edge>
    <edge id=":1452_23" function="internal">
        <lane id=":1452_23_0" index="0" speed="3.65" length="3.23" shape="2559.20,7650.80 2558.80,7650.00 2559.20,7649.20 2560.40,7648.40"/>
    </edge>
    <edge id=":1452_10" function="internal">
        <lane id=":1452_10_0" index="0" speed="6.51" length="9.03" shape="2554.80,7639.60 2555.15,7642.05 2556.20,7643.80 2557.95,7644.85 2560.40,7645.20"/>
    </edge>
    <edge id=":1452_11" function="internal">
        <lane id=":1452_11_0" index="0" speed="13.89" length="20.80" shape="2554.80,7639.60 2554.80,7660.40"/>
        <lane id=":1452_11_1" index="1" speed="13.89" length="20.80" shape="2551.60,7639.60 2551.60,7660.40"/>
    </edge>
    <edge id=":1452_13" function="internal">
        <lane id=":1452_13_0" index="0" speed="9.26" length="5.01" shape="2551.60,7639.60 2550.89,7644.56"/>
    </edge>
    <edge id=":1452_14" function="internal">
        <lane id=":1452_14_0" index="0" speed="3.65" length="1.44" shape="2551.60,7639.60 2550.80,7640.80"/>
    </edge>
    <edge id=":1452_24" function="internal">
        <lane id=":1452_24_0" index="0" speed="9.26" length="14.34" shape="2550.89,7644.56 2550.85,7644.85 2548.60,7648.60 2544.85,7650.85 2539.60,7651.60"/>
    </edge>
    <edge id=":1452_25" function="internal">
        <lane id=":1452_25_0" index="0" speed="3.65" length="3.23" shape="2550.80,7640.80 2550.00,7641.20 2549.20,7640.80 2548.40,7639.60"/>
    </edge>
    <edge id=":1452_15" function="internal">
        <lane id=":1452_15_0" index="0" speed="6.51" length="9.03" shape="2539.60,7645.20 2542.05,7644.85 2543.80,7643.80 2544.85,7642.05 2545.20,7639.60"/>
    </edge>
    <edge id=":1452_16" function="internal">
        <lane id=":1452_16_0" index="0" speed="13.89" length="20.80" shape="2539.60,7645.20 2560.40,7645.20"/>
        <lane id=":1452_16_1" index="1" speed="13.89" length="20.80" shape="2539.60,7648.40 2560.40,7648.40"/>
    </edge>
    <edge id=":1452_18" function="internal">
        <lane id=":1452_18_0" index="0" speed="9.26" length="5.01" shape="2539.60,7648.40 2544.56,7649.11"/>
    </edge>
    <edge id=":1452_19" function="internal">
        <lane id=":1452_19_0" index="0" speed="3.65" length="1.44" shape="2539.60,7648.40 2540.80,7649.20"/>
    </edge>
    <edge id=":1452_26" function="internal">
        <lane id=":1452_26_0" index="0" speed="9.26" length="14.34" shape="2544.56,7649.11 2544.85,7649.15 2548.60,7651.40 2550.85,7655.15 2551.60,7660.40"/>
    </edge>
    <edge id=":1452_27" function="internal">
        <lane id=":1452_27_0" index="0" speed="3.65" length="3.23" shape="2540.80,7649.20 2541.20,7650.00 2540.80,7650.80 2539.60,7651.60"/>
    </edge>
    <edge id=":1454_0" function="internal">
        <lane id=":1454_0_0" index="0" speed="3.65" length="4.67" shape="1650.00,7051.60 1648.80,7050.80 1648.40,7050.00 1648.80,7049.20 1650.00,7048.40"/>
    </edge>
    <edge id=":1478_0" function="internal">
        <lane id=":1478_0_0" index="0" speed="3.65" length="4.67" shape="2400.00,7651.60 2398.80,7650.80 2398.40,7650.00 2398.80,7649.20 2400.00,7648.40"/>
    </edge>
    <edge id=":1484_0" function="internal">
        <lane id=":1484_0_0" index="0" speed="3.65" length="4.67" shape="2551.60,7800.00 2550.80,7801.20 2550.00,7801.60 2549.20,7801.20 2548.40,7800.00"/>
    </edge>
    <edge id=":1488_0" function="internal">
        <lane id=":1488_0_0" index="0" speed="8.96" length="18.06" shape="3454.80,7643.60 3454.10,7648.50 3452.00,7652.00 3448.50,7654.10 3443.60,7654.80"/>
        <lane id=":1488_0_1" index="1" speed="7.66" length="12.90" shape="3451.60,7643.60 3451.10,7647.10 3449.60,7649.60 3447.10,7651.10 3443.60,7651.60"/>
    </edge>
    <edge id=":1488_2" function="internal">
        <lane id=":1488_2_0" index="0" speed="3.90" length="2.58" shape="3443.60,7645.20 3444.30,7645.10 3444.80,7644.80 3445.10,7644.30 3445.20,7643.60"/>
        <lane id=":1488_2_1" index="1" speed="6.08" length="7.74" shape="3443.60,7648.40 3445.70,7648.10 3447.20,7647.20 3448.10,7645.70 3448.40,7643.60"/>
    </edge>
    <edge id=":157_0" function="internal">
        <lane id=":157_0_0" index="0" speed="3.65" length="4.67" shape="3300.00,4648.40 3301.20,4649.20 3301.60,4650.00 3301.20,4650.80 3300.00,4651.60"/>
    </edge>
    <edge id=":1608_0" function="internal">
        <lane id=":1608_0_0" index="0" speed="13.89" length="0.10" shape="2700.00,3454.80 2700.00,3454.80"/>
        <lane id=":1608_0_1" index="1" speed="13.89" length="0.10" shape="2700.00,3451.60 2700.00,3451.60"/>
    </edge>
    <edge id=":1608_2" function="internal">
        <lane id=":1608_2_0" index="0" speed="13.89" length="0.10" shape="2700.00,3445.20 2700.00,3445.20"/>
        <lane id=":1608_2_1" index="1" speed="13.89" length="0.10" shape="2700.00,3448.40 2700.00,3448.40"/>
    </edge>
    <edge id=":1630_0" function="internal">
        <lane id=":1630_0_0" index="0" speed="3.65" length="4.67" shape="3148.40,5400.00 3149.20,5398.80 3150.00,5398.40 3150.80,5398.80 3151.60,5400.00"/>
    </edge>
    <edge id=":1647_0" function="internal">
        <lane id=":1647_0_0" index="0" speed="8.96" length="18.06" shape="1804.80,1943.60 1804.10,1948.50 1802.00,1952.00 1798.50,1954.10 1793.60,1954.80"/>
        <lane id=":1647_0_1" index="1" speed="7.66" length="12.90" shape="1801.60,1943.60 1801.10,1947.10 1799.60,1949.60 1797.10,1951.10 1793.60,1951.60"/>
    </edge>
    <edge id=":1647_2" function="internal">
        <lane id=":1647_2_0" index="0" speed="3.90" length="2.58" shape="1793.60,1945.20 1794.30,1945.10 1794.80,1944.80 1795.10,1944.30 1795.20,1943.60"/>
        <lane id=":1647_2_1" index="1" speed="6.08" length="7.74" shape="1793.60,1948.40 1795.70,1948.10 1797.20,1947.20 1798.10,1945.70 1798.40,1943.60"/>
    </edge>
    <edge id=":1649_0" function="internal">