<?xml version="1.0" encoding="UTF-8"?>

<!-- generated on 2025-03-31 04:16:57 by Eclipse SUMO netgenerate Version 1.22.0
<netgenerateConfiguration xmlns:xsi="http://www.w3.org/2001/XMLSchema-instance" xsi:noNamespaceSchemaLocation="http://sumo.dlr.de/xsd/netgenerateConfiguration.xsd">

    <random_network>
        <rand value="true"/>
        <rand.iterations value="104"/>
        <rand.max-distance value="2482.3338641202104"/>
        <rand.min-distance value="649.6097669403665"/>
        <rand.min-angle value="34.79473834260138"/>
        <rand.neighbor-dist1 value="1.0"/>
        <rand.neighbor-dist2 value="10.0"/>
        <rand.neighbor-dist3 value="5.0"/>
        <rand.neighbor-dist4 value="5.0"/>
        <rand.neighbor-dist5 value="0.0"/>
        <rand.neighbor-dist6 value="0.0"/>
    </random_network>

    <output>
        <output-file value="configs/rand-configs/rand2.net.xml"/>
    </output>

    <tls_building>
        <tls.guess value="true"/>
        <tls.guess.threshold value="0"/>
    </tls_building>

</netgenerateConfiguration>
-->

<net version="1.20" junctionCornerDetail="5" limitTurnSpeed="5.50" xmlns:xsi="http://www.w3.org/2001/XMLSchema-instance" xsi:noNamespaceSchemaLocation="http://sumo.dlr.de/xsd/net_file.xsd">

    <location netOffset="17936.66,10443.84" convBoundary="0.00,0.00,29037.48,22743.20" origBoundary="-17936.66,-10443.84,11100.82,12299.37" projParameter="!"/>

    <edge id=":1_0" function="internal">
        <lane id=":1_0_0" index="0" speed="11.26" length="16.20" shape="17935.18,10451.24 17934.55,10448.02 17932.77,10444.88 17929.84,10441.81 17925.76,10438.81"/>
    </edge>
    <edge id=":1_1" function="internal">
        <lane id=":1_1_0" index="0" speed="13.89" length="18.84" shape="17935.18,10451.24 17934.87,10446.91 17934.16,10441.89 17933.26,10436.89 17932.33,10432.64"/>
    </edge>
    <edge id=":1_2" function="internal">
        <lane id=":1_2_0" index="0" speed="7.91" length="3.57" shape="17935.18,10451.24 17935.63,10447.69"/>
    </edge>
    <edge id=":1_3" function="internal">
        <lane id=":1_3_0" index="0" speed="3.65" length="1.44" shape="17935.18,10451.24 17935.96,10450.02"/>
    </edge>
    <edge id=":1_16" function="internal">
        <lane id=":1_16_0" index="0" speed="7.91" length="10.83" shape="17935.63,10447.69 17935.68,10447.29 17937.34,10444.52 17940.14,10442.93 17944.10,10442.52"/>
    </edge>
    <edge id=":1_17" function="internal">
        <lane id=":1_17_0" index="0" speed="3.65" length="3.23" shape="17935.96,10450.02 17936.75,10449.61 17937.56,10450.00 17938.38,10451.19"/>
    </edge>
    <edge id=":1_4" function="internal">
        <lane id=":1_4_0" index="0" speed="6.39" length="9.04" shape="17943.97,10445.71 17941.49,10445.98 17939.73,10446.97 17938.70,10448.71 17938.38,10451.19"/>
    </edge>
    <edge id=":1_5" function="internal">
        <lane id=":1_5_0" index="0" speed="13.89" length="19.61" shape="17943.97,10445.71 17939.61,10444.93 17934.58,10443.20 17929.68,10441.00 17925.76,10438.81"/>
    </edge>
    <edge id=":1_6" function="internal">
        <lane id=":1_6_0" index="0" speed="10.07" length="4.78" shape="17943.97,10445.71 17940.54,10444.40 17939.72,10443.66"/>
    </edge>
    <edge id=":1_7" function="internal">
        <lane id=":1_7_0" index="0" speed="3.65" length="1.44" shape="17943.97,10445.71 17942.81,10444.87"/>
    </edge>
    <edge id=":1_18" function="internal">
        <lane id=":1_18_0" index="0" speed="10.07" length="13.48" shape="17939.72,10443.66 17937.05,10441.24 17934.12,10437.05 17932.33,10432.64"/>
    </edge>
    <edge id=":1_19" function="internal">
        <lane id=":1_19_0" index="0" speed="3.65" length="3.23" shape="17942.81,10444.87 17942.44,10444.05 17942.87,10443.27 17944.10,10442.52"/>
    </edge>
    <edge id=":1_8" function="internal">
        <lane id=":1_8_0" index="0" speed="9.08" length="14.69" shape="17935.44,10431.89 17936.92,10436.45 17938.85,10439.74 17941.24,10441.77 17944.10,10442.52"/>
    </edge>
    <edge id=":1_9" function="internal">
        <lane id=":1_9_0" index="0" speed="13.89" length="19.54" shape="17935.44,10431.89 17936.38,10436.26 17937.32,10441.49 17938.05,10446.75 17938.38,10451.19"/>
    </edge>
    <edge id=":1_10" function="internal">
        <lane id=":1_10_0" index="0" speed="7.43" length="6.42" shape="17935.44,10431.89 17936.22,10438.10 17936.16,10438.25"/>
    </edge>
    <edge id=":1_11" function="internal">
        <lane id=":1_11_0" index="0" speed="3.65" length="1.44" shape="17935.44,10431.89 17934.94,10433.25"/>
    </edge>
    <edge id=":1_20" function="internal">
        <lane id=":1_20_0" index="0" speed="7.43" length="13.09" shape="17936.16,10438.25 17934.87,10441.33 17931.38,10441.56 17925.76,10438.81"/>
    </edge>
    <edge id=":1_21" function="internal">
        <lane id=":1_21_0" index="0" speed="3.65" length="3.23" shape="17934.94,10433.25 17934.26,10433.82 17933.39,10433.62 17932.33,10432.64"/>
    </edge>
    <edge id=":1_12" function="internal">
        <lane id=":1_12_0" index="0" speed="5.47" length="9.79" shape="17927.47,10436.11 17930.29,10437.49 17932.04,10437.37 17932.72,10435.76 17932.33,10432.64"/>
    </edge>
    <edge id=":1_13" function="internal">
        <lane id=":1_13_0" index="0" speed="13.89" length="17.96" shape="17927.47,10436.11 17931.15,10438.22 17935.49,10440.25 17939.98,10441.81 17944.10,10442.52"/>
    </edge>
    <edge id=":1_14" function="internal">
        <lane id=":1_14_0" index="0" speed="12.18" length="5.03" shape="17927.47,10436.11 17931.38,10439.29"/>
    </edge>
    <edge id=":1_15" function="internal">
        <lane id=":1_15_0" index="0" speed="3.65" length="1.44" shape="17927.47,10436.11 17928.06,10437.43"/>
    </edge>
    <edge id=":1_22" function="internal">
        <lane id=":1_22_0" index="0" speed="12.18" length="14.02" shape="17931.38,10439.29 17934.87,10443.35 17937.38,10447.56 17938.38,10451.19"/>
    </edge>
    <edge id=":1_23" function="internal">
        <lane id=":1_23_0" index="0" speed="3.65" length="3.23" shape="17928.06,10437.43 17927.97,10438.32 17927.20,10438.78 17925.76,10438.81"/>
    </edge>
    <edge id=":10_0" function="internal">
        <lane id=":10_0_0" index="0" speed="13.89" length="17.92" shape="15975.10,8669.34 15970.98,8669.95 15966.24,8669.72 15961.53,8668.82 15957.54,8667.45"/>
    </edge>
    <edge id=":10_1" function="internal">
        <lane id=":10_1_0" index="0" speed="8.23" length="4.95" shape="15975.10,8669.34 15971.02,8669.84 15970.24,8669.52"/>
    </edge>
    <edge id=":10_2" function="internal">
        <lane id=":10_2_0" index="0" speed="3.65" length="1.44" shape="15975.10,8669.34 15973.71,8668.93"/>
    </edge>
    <edge id=":10_9" function="internal">
        <lane id=":10_9_0" index="0" speed="8.23" length="11.64" shape="15970.24,8669.52 15967.81,8668.53 15965.49,8665.41 15964.05,8660.49"/>
    </edge>
    <edge id=":10_10" function="internal">
        <lane id=":10_10_0" index="0" speed="3.65" length="3.23" shape="15973.71,8668.93 15973.10,8668.28 15973.24,8667.40 15974.15,8666.28"/>
    </edge>
    <edge id=":10_3" function="internal">
        <lane id=":10_3_0" index="0" speed="6.80" length="10.95" shape="15967.20,8659.95 15968.15,8663.36 15969.63,8665.56 15971.63,8666.53 15974.15,8666.28"/>
    </edge>
    <edge id=":10_4" function="internal">
        <lane id=":10_4_0" index="0" speed="7.38" length="17.32" shape="15967.20,8659.95 15967.42,8665.22 15965.89,8668.23 15962.59,8668.97 15957.54,8667.45"/>
    </edge>
    <edge id=":10_5" function="internal">
        <lane id=":10_5_0" index="0" speed="3.65" length="1.44" shape="15967.20,8659.95 15966.61,8661.26"/>
    </edge>
    <edge id=":10_11" function="internal">
        <lane id=":10_11_0" index="0" speed="3.65" length="3.23" shape="15966.61,8661.26 15965.89,8661.79 15965.04,8661.54 15964.05,8660.49"/>
    </edge>
    <edge id=":10_6" function="internal">
        <lane id=":10_6_0" index="0" speed="5.60" length="9.32" shape="15958.84,8664.53 15961.56,8665.35 15963.34,8664.95 15964.17,8663.33 15964.05,8660.49"/>
    </edge>
    <edge id=":10_7" function="internal">
        <lane id=":10_7_0" index="0" speed="13.86" length="15.70" shape="15958.84,8664.53 15962.49,8665.87 15966.42,8666.73 15970.38,8666.92 15974.15,8666.28"/>
    </edge>
    <edge id=":10_8" function="internal">
        <lane id=":10_8_0" index="0" speed="3.65" length="1.44" shape="15958.84,8664.53 15959.61,8665.75"/>
    </edge>
    <edge id=":10_12" function="internal">
        <lane id=":10_12_0" index="0" speed="3.65" length="3.23" shape="15959.61,8665.75 15959.65,8666.64 15958.96,8667.21 15957.54,8667.45"/>
    </edge>
    <edge id=":1006_0" function="internal">
        <lane id=":1006_0_0" index="0" speed="6.70" length="16.20" shape="29028.36,4823.89 29033.55,4822.71 29036.21,4823.51 29036.33,4826.29 29033.92,4831.03"/>
    </edge>
    <edge id=":1006_1" function="internal">
        <lane id=":1006_1_0" index="0" speed="4.23" length="5.40" shape="29031.23,4829.30 29032.03,4827.72 29031.99,4826.80 29031.10,4826.53 29029.37,4826.92"/>
    </edge>
    <edge id=":1010_0" function="internal">
        <lane id=":1010_0_0" index="0" speed="5.64" length="9.46" shape="1515.02,12354.02 1513.86,12351.33 1512.39,12350.17 1510.61,12350.56 1508.52,12352.48"/>
    </edge>
    <edge id=":1010_1" function="internal">
        <lane id=":1010_1_0" index="0" speed="13.89" length="17.98" shape="1515.02,12354.02 1514.18,12349.86 1513.85,12345.07 1514.16,12340.31 1515.24,12336.29"/>
    </edge>
    <edge id=":1010_2" function="internal">
        <lane id=":1010_2_0" index="0" speed="7.38" length="17.55" shape="1515.02,12354.02 1514.18,12348.70 1515.37,12345.52 1518.60,12344.50 1523.87,12345.62"/>
    </edge>
    <edge id=":1010_3" function="internal">
        <lane id=":1010_3_0" index="0" speed="3.65" length="1.44" shape="1515.02,12354.02 1515.46,12352.64"/>
    </edge>
    <edge id=":1010_16" function="internal">
        <lane id=":1010_16_0" index="0" speed="3.65" length="3.23" shape="1515.46,12352.64 1516.11,12352.03 1516.99,12352.19 1518.10,12353.12"/>
    </edge>
    <edge id=":1010_4" function="internal">
        <lane id=":1010_4_0" index="0" speed="5.58" length="9.37" shape="1522.81,12348.64 1520.00,12348.04 1518.28,12348.59 1517.64,12350.28 1518.10,12353.12"/>
    </edge>
    <edge id=":1010_5" function="internal">
        <lane id=":1010_5_0" index="0" speed="9.81" length="15.85" shape="1522.81,12348.64 1518.70,12347.75 1514.94,12348.10 1511.55,12349.67 1508.52,12352.48"/>
    </edge>
    <edge id=":1010_6" function="internal">
        <lane id=":1010_6_0" index="0" speed="8.41" length="16.73" shape="1522.81,12348.64 1518.11,12346.39 1515.28,12343.58 1514.33,12340.22 1515.24,12336.29"/>
    </edge>
    <edge id=":1010_7" function="internal">
        <lane id=":1010_7_0" index="0" speed="3.65" length="1.44" shape="1522.81,12348.64 1521.94,12347.49"/>
    </edge>
    <edge id=":1010_17" function="internal">
        <lane id=":1010_17_0" index="0" speed="3.65" length="3.23" shape="1521.94,12347.49 1521.83,12346.60 1522.47,12345.98 1523.87,12345.62"/>
    </edge>
    <edge id=":1010_8" function="internal">
        <lane id=":1010_8_0" index="0" speed="7.01" length="11.30" shape="1518.17,12337.58 1517.66,12340.05 1518.44,12342.21 1520.51,12344.07 1523.87,12345.62"/>
    </edge>
    <edge id=":1010_9" function="internal">
        <lane id=":1010_9_0" index="0" speed="13.89" length="15.81" shape="1518.17,12337.58 1517.11,12341.26 1516.85,12345.26 1517.23,12349.31 1518.10,12353.12"/>
    </edge>
    <edge id=":1010_10" function="internal">
        <lane id=":1010_10_0" index="0" speed="13.89" length="17.79" shape="1518.17,12337.58 1516.26,12341.30 1513.79,12345.30 1511.10,12349.17 1508.52,12352.48"/>
    </edge>
    <edge id=":1010_11" function="internal">
        <lane id=":1010_11_0" index="0" speed="3.65" length="1.44" shape="1518.17,12337.58 1516.96,12338.35"/>
    </edge>
    <edge id=":1010_18" function="internal">
        <lane id=":1010_18_0" index="0" speed="3.65" length="3.23" shape="1516.96,12338.35 1516.06,12338.40 1515.49,12337.71 1515.24,12336.29"/>
    </edge>
    <edge id=":1010_12" function="internal">
        <lane id=":1010_12_0" index="0" speed="13.89" length="16.90" shape="1506.06,12350.43 1508.56,12347.24 1511.10,12343.63 1513.41,12339.89 1515.24,12336.29"/>
    </edge>
    <edge id=":1010_13" function="internal">
        <lane id=":1010_13_0" index="0" speed="10.90" length="19.75" shape="1506.06,12350.43 1509.84,12346.93 1514.07,12344.96 1518.75,12344.52 1523.87,12345.62"/>
    </edge>
    <edge id=":1010_14" function="internal">
        <lane id=":1010_14_0" index="0" speed="7.41" length="17.46" shape="1506.06,12350.43 1509.94,12346.85 1513.24,12346.10 1515.95,12348.19 1518.10,12353.12"/>
    </edge>
    <edge id=":1010_15" function="internal">
        <lane id=":1010_15_0" index="0" speed="3.65" length="1.44" shape="1506.06,12350.43 1507.44,12350.02"/>
    </edge>
    <edge id=":1010_19" function="internal">
        <lane id=":1010_19_0" index="0" speed="3.65" length="3.23" shape="1507.44,12350.02 1508.32,12350.23 1508.67,12351.05 1508.52,12352.48"/>
    </edge>
    <edge id=":1014_0" function="internal">
        <lane id=":1014_0_0" index="0" speed="5.66" length="9.25" shape="19236.00,16527.03 19235.16,16524.38 19233.82,16523.12 19231.98,16523.24 19229.65,16524.76"/>
    </edge>
    <edge id=":1014_1" function="internal">
        <lane id=":1014_1_0" index="0" speed="13.89" length="17.78" shape="19236.00,16527.03 19235.47,16522.88 19235.21,16518.17 19235.30,16513.46 19235.77,16509.32"/>
    </edge>
    <edge id=":1014_2" function="internal">
        <lane id=":1014_2_0" index="0" speed="8.03" length="5.73" shape="19236.00,16527.03 19235.73,16522.07 19235.98,16521.35"/>
    </edge>
    <edge id=":1014_3" function="internal">
        <lane id=":1014_3_0" index="0" speed="3.65" length="1.44" shape="19236.00,16527.03 19236.58,16525.71"/>
    </edge>
    <edge id=":1014_16" function="internal">
        <lane id=":1014_16_0" index="0" speed="8.03" length="10.57" shape="19235.98,16521.35 19236.93,16518.54 19239.61,16516.44 19243.76,16515.76"/>
    </edge>
    <edge id=":1014_17" function="internal">
        <lane id=":1014_17_0" index="0" speed="3.65" length="3.23" shape="19236.58,16525.71 19237.30,16525.18 19238.16,16525.43 19239.15,16526.47"/>
    </edge>
    <edge id=":1014_4" function="internal">
        <lane id=":1014_4_0" index="0" speed="6.55" length="10.43" shape="19243.73,16518.96 19241.23,16519.42 19239.63,16520.82 19238.94,16523.17 19239.15,16526.47"/>
    </edge>
    <edge id=":1014_5" function="internal">
        <lane id=":1014_5_0" index="0" speed="13.89" length="15.52" shape="19243.73,16518.96 19239.96,16519.40 19236.24,16520.63 19232.75,16522.47 19229.65,16524.76"/>
    </edge>
    <edge id=":1014_6" function="internal">
        <lane id=":1014_6_0" index="0" speed="7.72" length="2.51" shape="19243.73,16518.96 19241.25,16518.59"/>
    </edge>
    <edge id=":1014_7" function="internal">
        <lane id=":1014_7_0" index="0" speed="3.65" length="1.30" shape="19243.73,16518.96 19242.66,16518.23"/>
    </edge>
    <edge id=":1014_18" function="internal">
        <lane id=":1014_18_0" index="0" speed="7.72" length="12.42" shape="19241.25,16518.59 19239.58,16518.33 19236.86,16516.52 19235.60,16513.51 19235.77,16509.32"/>
    </edge>
    <edge id=":1014_19" function="internal">
        <lane id=":1014_19_0" index="0" speed="3.65" length="3.37" shape="19242.66,16518.23 19242.54,16518.15 19242.15,16517.35 19242.55,16516.55 19243.76,16515.76"/>
    </edge>
    <edge id=":1014_8" function="internal">
        <lane id=":1014_8_0" index="0" speed="6.16" length="9.07" shape="19238.92,16509.91 19238.81,16512.45 19239.58,16514.28 19241.23,16515.38 19243.76,16515.76"/>
    </edge>
    <edge id=":1014_9" function="internal">
        <lane id=":1014_9_0" index="0" speed="13.89" length="16.64" shape="19238.92,16509.91 19238.44,16513.88 19238.36,16518.19 19238.62,16522.50 19239.15,16526.47"/>
    </edge>
    <edge id=":1014_10" function="internal">
        <lane id=":1014_10_0" index="0" speed="13.89" length="3.48" shape="19238.92,16509.91 19237.82,16513.21"/>
    </edge>
    <edge id=":1014_11" function="internal">
        <lane id=":1014_11_0" index="0" speed="3.65" length="1.44" shape="19238.92,16509.91 19237.91,16510.94"/>
    </edge>
    <edge id=":1014_20" function="internal">
        <lane id=":1014_20_0" index="0" speed="13.89" length="14.25" shape="19237.82,16513.21 19237.61,16513.84 19235.36,16517.96 19232.57,16521.76 19229.65,16524.76"/>
    </edge>
    <edge id=":1014_21" function="internal">
        <lane id=":1014_21_0" index="0" speed="3.65" length="3.23" shape="19237.91,16510.94 19237.05,16511.18 19236.34,16510.64 19235.77,16509.32"/>
    </edge>
    <edge id=":1014_12" function="internal">
        <lane id=":1014_12_0" index="0" speed="13.89" length="15.63" shape="19227.57,16522.32 19230.32,16519.61 19232.75,16516.44 19234.64,16512.96 19235.77,16509.32"/>
    </edge>
    <edge id=":1014_13" function="internal">
        <lane id=":1014_13_0" index="0" speed="13.89" length="17.73" shape="19227.57,16522.32 19231.00,16519.92 19235.21,16517.81 19239.65,16516.32 19243.76,16515.76"/>
    </edge>
    <edge id=":1014_14" function="internal">
        <lane id=":1014_14_0" index="0" speed="7.40" length="6.04" shape="19227.57,16522.32 19231.82,16519.56 19232.79,16519.50"/>
    </edge>
    <edge id=":1014_15" function="internal">
        <lane id=":1014_15_0" index="0" speed="3.65" length="1.44" shape="19227.57,16522.32 19229.00,16522.15"/>
    </edge>
    <edge id=":1014_22" function="internal">
        <lane id=":1014_22_0" index="0" speed="7.40" length="10.82" shape="19232.79,16519.50 19235.17,16519.33 19237.62,16521.64 19239.15,16526.47"/>
    </edge>
    <edge id=":1014_23" function="internal">
        <lane id=":1014_23_0" index="0" speed="3.65" length="3.23" shape="19229.00,16522.15 19229.82,16522.50 19230.04,16523.37 19229.65,16524.76"/>
    </edge>
    <edge id=":1016_0" function="internal">
        <lane id=":1016_0_0" index="0" speed="6.13" length="10.26" shape="19388.78,17368.16 19388.89,17371.16 19387.97,17373.08 19386.02,17373.92 19383.03,17373.69"/>
    </edge>
    <edge id=":1016_1" function="internal">
        <lane id=":1016_1_0" index="0" speed="3.93" length="3.42" shape="19383.71,17370.57 19384.71,17370.64 19385.36,17370.36 19385.67,17369.72 19385.63,17368.72"/>
    </edge>
    <edge id=":1018_0" function="internal">
        <lane id=":1018_0_0" index="0" speed="11.75" length="13.99" shape="25038.59,3886.07 25034.94,3888.53 25032.19,3891.02 25030.33,3893.55 25029.37,3896.11"/>
    </edge>
    <edge id=":1018_1" function="internal">
        <lane id=":1018_1_0" index="0" speed="10.96" length="19.70" shape="25038.59,3886.07 25033.79,3888.19 25029.12,3888.74 25024.59,3887.73 25020.19,3885.15"/>
    </edge>
    <edge id=":1018_2" function="internal">
        <lane id=":1018_2_0" index="0" speed="7.38" length="7.99" shape="25038.59,3886.07 25033.64,3888.23 25031.07,3887.96"/>
    </edge>
    <edge id=":1018_3" function="internal">
        <lane id=":1018_3_0" index="0" speed="3.65" length="1.44" shape="25038.59,3886.07 25037.15,3885.99"/>
    </edge>
    <edge id=":1018_16" function="internal">
        <lane id=":1018_16_0" index="0" speed="7.38" length="9.60" shape="25031.07,3887.96 25030.27,3887.87 25028.48,3884.99 25028.26,3879.59"/>
    </edge>
    <edge id=":1018_17" function="internal">
        <lane id=":1018_17_0" index="0" speed="3.65" length="3.23" shape="25037.15,3885.99 25036.40,3885.51 25036.33,3884.62 25036.95,3883.32"/>
    </edge>
    <edge id=":1018_4" function="internal">
        <lane id=":1018_4_0" index="0" speed="5.57" length="9.37" shape="25031.45,3879.87 25031.56,3882.74 25032.52,3884.28 25034.32,3884.47 25036.95,3883.32"/>
    </edge>
    <edge id=":1018_5" function="internal">
        <lane id=":1018_5_0" index="0" speed="13.89" length="16.39" shape="25031.45,3879.87 25031.08,3883.82 25030.62,3888.02 25030.05,3892.21 25029.37,3896.11"/>
    </edge>
    <edge id=":1018_6" function="internal">
        <lane id=":1018_6_0" index="0" speed="7.44" length="5.38" shape="25031.45,3879.87 25030.32,3885.12"/>
    </edge>
    <edge id=":1018_7" function="internal">
        <lane id=":1018_7_0" index="0" speed="3.65" length="1.44" shape="25031.45,3879.87 25030.55,3880.99"/>
    </edge>
    <edge id=":1018_18" function="internal">
        <lane id=":1018_18_0" index="0" speed="7.44" length="12.05" shape="25030.32,3885.12 25028.06,3887.76 25024.69,3887.77 25020.19,3885.15"/>
    </edge>
    <edge id=":1018_19" function="internal">
        <lane id=":1018_19_0" index="0" speed="3.65" length="3.23" shape="25030.55,3880.99 25029.72,3881.32 25028.96,3880.85 25028.26,3879.59"/>
    </edge>
    <edge id=":1018_8" function="internal">
        <lane id=":1018_8_0" index="0" speed="5.68" length="9.55" shape="25022.15,3882.62 25024.59,3884.03 25026.42,3883.99 25027.64,3882.51 25028.26,3879.59"/>
    </edge>
    <edge id=":1018_9" function="internal">
        <lane id=":1018_9_0" index="0" speed="9.88" length="15.84" shape="25022.15,3882.62 25025.68,3884.69 25029.32,3885.49 25033.08,3885.03 25036.95,3883.32"/>
    </edge>
    <edge id=":1018_10" function="internal">
        <lane id=":1018_10_0" index="0" speed="10.45" length="3.35" shape="25022.15,3882.62 25024.63,3884.88"/>
    </edge>
    <edge id=":1018_11" function="internal">
        <lane id=":1018_11_0" index="0" speed="3.65" length="1.31" shape="25022.15,3882.62 25022.57,3883.87"/>
    </edge>
    <edge id=":1018_20" function="internal">
        <lane id=":1018_20_0" index="0" speed="10.45" length="12.75" shape="25024.63,3884.88 25025.82,3885.96 25028.25,3889.33 25029.43,3892.71 25029.37,3896.11"/>
    </edge>
    <edge id=":1018_21" function="internal">
        <lane id=":1018_21_0" index="0" speed="3.65" length="3.36" shape="25022.57,3883.87 25022.61,3883.99 25022.43,3884.87 25021.63,3885.26 25020.19,3885.15"/>
    </edge>
    <edge id=":1018_12" function="internal">
        <lane id=":1018_12_0" index="0" speed="9.28" length="12.56" shape="25026.23,3895.49 25026.22,3893.01 25025.21,3890.46 25023.20,3887.84 25020.19,3885.15"/>
    </edge>
    <edge id=":1018_13" function="internal">
        <lane id=":1018_13_0" index="0" speed="13.89" length="16.04" shape="25026.23,3895.49 25026.90,3891.64 25027.45,3887.57 25027.90,3883.49 25028.26,3879.59"/>
    </edge>
    <edge id=":1018_14" function="internal">
        <lane id=":1018_14_0" index="0" speed="12.79" length="3.63" shape="25026.23,3895.49 25027.39,3892.27 25027.51,3892.10"/>
    </edge>
    <edge id=":1018_15" function="internal">
        <lane id=":1018_15_0" index="0" speed="3.65" length="1.44" shape="25026.23,3895.49 25027.25,3894.47"/>
    </edge>
    <edge id=":1018_22" function="internal">
        <lane id=":1018_22_0" index="0" speed="12.79" length="13.03" shape="25027.51,3892.10 25029.57,3889.17 25032.75,3886.18 25036.95,3883.32"/>
    </edge>
    <edge id=":1018_23" function="internal">
        <lane id=":1018_23_0" index="0" speed="3.65" length="3.23" shape="25027.25,3894.47 25028.12,3894.23 25028.82,3894.78 25029.37,3896.11"/>
    </edge>
    <edge id=":1020_0" function="internal">
        <lane id=":1020_0_0" index="0" speed="13.89" length="18.89" shape="26782.61,2031.43 26778.24,2031.27 26773.13,2031.36 26768.07,2031.79 26763.82,2032.66"/>
    </edge>
    <edge id=":1020_1" function="internal">
        <lane id=":1020_1_0" index="0" speed="11.11" length="20.66" shape="26782.61,2031.43 26776.46,2030.45 26771.68,2028.41 26768.25,2025.33 26766.19,2021.18"/>
    </edge>
    <edge id=":1020_2" function="internal">
        <lane id=":1020_2_0" index="0" speed="7.48" length="8.70" shape="26782.61,2031.43 26776.09,2030.30 26774.48,2028.97"/>
    </edge>
    <edge id=":1020_3" function="internal">
        <lane id=":1020_3_0" index="0" speed="3.65" length="1.44" shape="26782.61,2031.43 26781.46,2030.55"/>
    </edge>
    <edge id=":1020_16" function="internal">
        <lane id=":1020_16_0" index="0" speed="7.48" length="11.62" shape="26774.48,2028.97 26773.36,2028.05 26774.40,2024.66 26779.22,2020.13"/>
    </edge>
    <edge id=":1020_17" function="internal">
        <lane id=":1020_17_0" index="0" speed="3.65" length="3.23" shape="26781.46,2030.55 26781.12,2029.72 26781.57,2028.95 26782.82,2028.23"/>
    </edge>
    <edge id=":1020_4" function="internal">
        <lane id=":1020_4_0" index="0" speed="5.46" length="9.99" shape="26781.15,2022.68 26778.78,2024.90 26778.27,2026.57 26779.62,2027.68 26782.82,2028.23"/>
    </edge>
    <edge id=":1020_5" function="internal">
        <lane id=":1020_5_0" index="0" speed="13.89" length="20.05" shape="26781.15,2022.68 26777.43,2025.30 26772.78,2028.24 26767.98,2030.90 26763.82,2032.66"/>
    </edge>
    <edge id=":1020_6" function="internal">
        <lane id=":1020_6_0" index="0" speed="8.14" length="7.04" shape="26781.15,2022.68 26775.77,2025.96 26775.05,2026.10"/>
    </edge>
    <edge id=":1020_7" function="internal">
        <lane id=":1020_7_0" index="0" speed="3.65" length="1.44" shape="26781.15,2022.68 26779.71,2022.77"/>
    </edge>
    <edge id=":1020_18" function="internal">
        <lane id=":1020_18_0" index="0" speed="8.14" length="11.74" shape="26775.05,2026.10 26771.49,2026.80 26768.29,2025.21 26766.19,2021.18"/>
    </edge>
    <edge id=":1020_19" function="internal">
        <lane id=":1020_19_0" index="0" speed="3.65" length="3.23" shape="26779.71,2022.77 26778.91,2022.37 26778.74,2021.49 26779.22,2020.13"/>
    </edge>
    <edge id=":1020_8" function="internal">
        <lane id=":1020_8_0" index="0" speed="6.67" length="12.18" shape="26769.26,2020.27 26770.55,2022.54 26772.64,2023.26 26775.53,2022.46 26779.22,2020.13"/>
    </edge>
    <edge id=":1020_9" function="internal">
        <lane id=":1020_9_0" index="0" speed="10.05" length="16.76" shape="26769.26,2020.27 26770.91,2023.47 26773.72,2025.87 26777.69,2027.45 26782.82,2028.23"/>
    </edge>
    <edge id=":1020_10" function="internal">
        <lane id=":1020_10_0" index="0" speed="8.34" length="2.37" shape="26769.26,2020.27 26769.65,2022.61"/>
    </edge>
    <edge id=":1020_11" function="internal">
        <lane id=":1020_11_0" index="0" speed="3.65" length="1.28" shape="26769.26,2020.27 26768.88,2021.49"/>
    </edge>
    <edge id=":1020_20" function="internal">
        <lane id=":1020_20_0" index="0" speed="8.34" length="12.98" shape="26769.65,2022.61 26770.01,2024.72 26769.35,2028.26 26767.29,2030.91 26763.82,2032.66"/>
    </edge>
    <edge id=":1020_21" function="internal">
        <lane id=":1020_21_0" index="0" speed="3.65" length="3.40" shape="26768.88,2021.49 26768.83,2021.65 26768.18,2022.26 26767.30,2022.11 26766.19,2021.18"/>
    </edge>
    <edge id=":1020_12" function="internal">
        <lane id=":1020_12_0" index="0" speed="6.92" length="10.25" shape="26762.87,2029.61 26765.07,2028.46 26766.36,2026.67 26766.73,2024.25 26766.19,2021.18"/>
    </edge>
    <edge id=":1020_13" function="internal">
        <lane id=":1020_13_0" index="0" speed="13.89" length="18.96" shape="26762.87,2029.61 26766.88,2027.92 26771.34,2025.44 26775.65,2022.68 26779.22,2020.13"/>
    </edge>
    <edge id=":1020_14" function="internal">
        <lane id=":1020_14_0" index="0" speed="13.89" length="20.06" shape="26762.87,2029.61 26767.30,2028.72 26772.76,2028.24 26778.27,2028.10 26782.82,2028.23"/>
    </edge>
    <edge id=":1020_15" function="internal">
        <lane id=":1020_15_0" index="0" speed="3.65" length="1.34" shape="26762.87,2029.61 26764.15,2029.98"/>
    </edge>
    <edge id=":1020_22" function="internal">
        <lane id=":1020_22_0" index="0" speed="3.65" length="3.34" shape="26764.15,2029.98 26764.25,2030.01 26764.87,2030.66 26764.73,2031.54 26763.82,2032.66"/>
    </edge>
    <edge id=":1024_0" function="internal">
        <lane id=":1024_0_0" index="0" speed="6.31" length="12.60" shape="23766.57,2912.50 23763.81,2909.76 23763.17,2907.44 23764.66,2905.54 23768.27,2904.08"/>
    </edge>
    <edge id=":1024_1" function="internal">
        <lane id=":1024_1_0" index="0" speed="4.02" length="4.20" shape="23769.10,2907.17 23767.89,2907.66 23767.40,2908.29 23767.61,2909.06 23768.53,2909.98"/>
    </edge>
    <edge id=":1147_0" function="internal">
        <lane id=":1147_0_0" index="0" speed="3.90" length="2.98" shape="19617.18,14506.31 19616.37,14506.11 19615.73,14506.24 19615.28,14506.70 19615.01,14507.50"/>
    </edge>
    <edge id=":1147_1" function="internal">
        <lane id=":1147_1_0" index="0" speed="6.08" length="8.93" shape="19611.86,14506.91 19612.68,14504.52 19614.04,14503.13 19615.94,14502.74 19618.39,14503.35"/>
    </edge>
    <edge id=":1151_0" function="internal">
        <lane id=":1151_0_0" index="0" speed="6.27" length="12.20" shape="21498.36,16527.34 21500.08,16530.66 21499.99,16533.02 21498.09,16534.42 21494.38,16534.87"/>
    </edge>
    <edge id=":1151_1" function="internal">
        <lane id=":1151_1_0" index="0" speed="4.01" length="4.07" shape="21494.40,16531.67 21495.64,16531.52 21496.27,16531.05 21496.30,16530.26 21495.73,16529.16"/>
    </edge>
    <edge id=":1160_0" function="internal">
        <lane id=":1160_0_0" index="0" speed="6.57" length="3.93" shape="24658.47,5761.56 24658.18,5762.52 24657.72,5763.36 24657.09,5764.09 24656.29,5764.70"/>
    </edge>
    <edge id=":1160_1" function="internal">
        <lane id=":1160_1_0" index="0" speed="4.16" length="1.31" shape="24654.60,5761.98 24654.87,5761.78 24655.08,5761.54 24655.23,5761.25 24655.33,5760.93"/>
    </edge>
    <edge id=":1162_0" function="internal">
        <lane id=":1162_0_0" index="0" speed="3.99" length="3.96" shape="28368.83,820.80 28368.60,819.62 28368.09,819.03 28367.32,819.04 28366.27,819.64"/>
    </edge>
    <edge id=":1162_1" function="internal">