<?xml version="1.0" encoding="UTF-8"?>

<!-- generated on 2025-03-27 09:30:07 by Eclipse SUMO netgenerate Version 1.22.0
<netgenerateConfiguration xmlns:xsi="http://www.w3.org/2001/XMLSchema-instance" xsi:noNamespaceSchemaLocation="http://sumo.dlr.de/xsd/netgenerateConfiguration.xsd">

    <random_network>
        <rand value="true"/>
        <rand.iterations value="411"/>
        <rand.max-distance value="2679.0009865638362"/>
        <rand.min-distance value="786.0724606692855"/>
        <rand.min-angle value="40.461837653756064"/>
        <rand.neighbor-dist1 value="1.0"/>
        <rand.neighbor-dist2 value="10.0"/>
        <rand.neighbor-dist3 value="5.0"/>
        <rand.neighbor-dist4 value="5.0"/>
        <rand.neighbor-dist5 value="0.0"/>
        <rand.neighbor-dist6 value="0.0"/>
    </random_network>

    <output>
        <output-file value="configs/rand-configs/rand0.net.xml"/>
    </output>

    <tls_building>
        <tls.guess value="true"/>
        <tls.guess.threshold value="0"/>
    </tls_building>

</netgenerateConfiguration>
-->

<net version="1.20" junctionCornerDetail="5" limitTurnSpeed="5.50" xmlns:xsi="http://www.w3.org/2001/XMLSchema-instance" xsi:noNamespaceSchemaLocation="http://sumo.dlr.de/xsd/net_file.xsd">

    <location netOffset="28954.77,17187.48" convBoundary="0.00,0.00,76962.85,36908.41" origBoundary="-28954.77,-17187.48,48008.08,19720.93" projParameter="!"/>

    <edge id=":1_0" function="internal">
        <lane id=":1_0_0" index="0" speed="11.26" length="16.20" shape="28953.29,17194.88 28952.66,17191.67 28950.88,17188.52 28947.95,17185.46 28943.87,17182.46"/>
    </edge>
    <edge id=":1_1" function="internal">
        <lane id=":1_1_0" index="0" speed="13.89" length="18.84" shape="28953.29,17194.88 28952.97,17190.55 28952.27,17185.54 28951.37,17180.54 28950.44,17176.29"/>
    </edge>
    <edge id=":1_2" function="internal">
        <lane id=":1_2_0" index="0" speed="7.91" length="3.57" shape="28953.29,17194.88 28953.74,17191.34"/>
    </edge>
    <edge id=":1_3" function="internal">
        <lane id=":1_3_0" index="0" speed="3.65" length="1.44" shape="28953.29,17194.88 28954.07,17193.67"/>
    </edge>
    <edge id=":1_16" function="internal">
        <lane id=":1_16_0" index="0" speed="7.91" length="10.83" shape="28953.74,17191.34 28953.79,17190.94 28955.45,17188.17 28958.25,17186.58 28962.20,17186.16"/>
    </edge>
    <edge id=":1_17" function="internal">
        <lane id=":1_17_0" index="0" speed="3.65" length="3.23" shape="28954.07,17193.67 28954.86,17193.26 28955.67,17193.65 28956.49,17194.83"/>
    </edge>
    <edge id=":1_4" function="internal">
        <lane id=":1_4_0" index="0" speed="6.39" length="9.04" shape="28962.08,17189.36 28959.60,17189.62 28957.84,17190.62 28956.80,17192.36 28956.49,17194.83"/>
    </edge>
    <edge id=":1_5" function="internal">
        <lane id=":1_5_0" index="0" speed="13.89" length="19.61" shape="28962.08,17189.36 28957.72,17188.58 28952.69,17186.85 28947.79,17184.64 28943.87,17182.46"/>
    </edge>
    <edge id=":1_6" function="internal">
        <lane id=":1_6_0" index="0" speed="10.07" length="4.78" shape="28962.08,17189.36 28958.64,17188.05 28957.83,17187.31"/>
    </edge>
    <edge id=":1_7" function="internal">
        <lane id=":1_7_0" index="0" speed="3.65" length="1.44" shape="28962.08,17189.36 28960.91,17188.52"/>
    </edge>
    <edge id=":1_18" function="internal">
        <lane id=":1_18_0" index="0" speed="10.07" length="13.48" shape="28957.83,17187.31 28955.16,17184.89 28952.23,17180.70 28950.44,17176.29"/>
    </edge>
    <edge id=":1_19" function="internal">
        <lane id=":1_19_0" index="0" speed="3.65" length="3.23" shape="28960.91,17188.52 28960.54,17187.70 28960.97,17186.92 28962.20,17186.16"/>
    </edge>
    <edge id=":1_8" function="internal">
        <lane id=":1_8_0" index="0" speed="9.08" length="14.69" shape="28953.55,17175.54 28955.03,17180.10 28956.96,17183.39 28959.35,17185.41 28962.20,17186.16"/>
    </edge>
    <edge id=":1_9" function="internal">
        <lane id=":1_9_0" index="0" speed="13.89" length="19.54" shape="28953.55,17175.54 28954.49,17179.90 28955.43,17185.14 28956.16,17190.39 28956.49,17194.83"/>
    </edge>
    <edge id=":1_10" function="internal">
        <lane id=":1_10_0" index="0" speed="7.43" length="6.42" shape="28953.55,17175.54 28954.33,17181.75 28954.27,17181.90"/>
    </edge>
    <edge id=":1_11" function="internal">
        <lane id=":1_11_0" index="0" speed="3.65" length="1.44" shape="28953.55,17175.54 28953.05,17176.90"/>
    </edge>
    <edge id=":1_20" function="internal">
        <lane id=":1_20_0" index="0" speed="7.43" length="13.09" shape="28954.27,17181.90 28952.98,17184.98 28949.49,17185.21 28943.87,17182.46"/>
    </edge>
    <edge id=":1_21" function="internal">
        <lane id=":1_21_0" index="0" speed="3.65" length="3.23" shape="28953.05,17176.90 28952.37,17177.47 28951.50,17177.27 28950.44,17176.29"/>
    </edge>
    <edge id=":1_12" function="internal">
        <lane id=":1_12_0" index="0" speed="5.47" length="9.79" shape="28945.58,17179.76 28948.40,17181.14 28950.15,17181.02 28950.83,17179.40 28950.44,17176.29"/>
    </edge>
    <edge id=":1_13" function="internal">
        <lane id=":1_13_0" index="0" speed="13.89" length="17.96" shape="28945.58,17179.76 28949.26,17181.86 28953.60,17183.90 28958.09,17185.46 28962.20,17186.16"/>
    </edge>
    <edge id=":1_14" function="internal">
        <lane id=":1_14_0" index="0" speed="12.18" length="5.03" shape="28945.58,17179.76 28949.49,17182.94"/>
    </edge>
    <edge id=":1_15" function="internal">
        <lane id=":1_15_0" index="0" speed="3.65" length="1.44" shape="28945.58,17179.76 28946.17,17181.08"/>
    </edge>
    <edge id=":1_22" function="internal">
        <lane id=":1_22_0" index="0" speed="12.18" length="14.02" shape="28949.49,17182.94 28952.97,17187.00 28955.49,17191.21 28956.49,17194.83"/>
    </edge>
    <edge id=":1_23" function="internal">
        <lane id=":1_23_0" index="0" speed="3.65" length="3.23" shape="28946.17,17181.08 28946.08,17181.97 28945.31,17182.43 28943.87,17182.46"/>
    </edge>
    <edge id=":10_0" function="internal">
        <lane id=":10_0_0" index="0" speed="13.89" length="19.28" shape="26791.31,15277.01 26787.32,15277.67 26782.91,15277.28 26778.09,15275.86 26772.86,15273.39"/>
    </edge>
    <edge id=":10_1" function="internal">
        <lane id=":10_1_0" index="0" speed="8.89" length="4.64" shape="26791.31,15277.01 26787.37,15277.36 26786.76,15277.07"/>
    </edge>
    <edge id=":10_2" function="internal">
        <lane id=":10_2_0" index="0" speed="3.65" length="1.44" shape="26791.31,15277.01 26789.93,15276.60"/>
    </edge>
    <edge id=":10_9" function="internal">
        <lane id=":10_9_0" index="0" speed="8.89" length="13.36" shape="26786.76,15277.07 26784.01,15275.78 26781.26,15272.27 26779.09,15266.82"/>
    </edge>
    <edge id=":10_10" function="internal">
        <lane id=":10_10_0" index="0" speed="3.65" length="3.23" shape="26789.93,15276.60 26789.31,15275.96 26789.45,15275.07 26790.36,15273.95"/>
    </edge>
    <edge id=":10_3" function="internal">
        <lane id=":10_3_0" index="0" speed="7.59" length="12.83" shape="26782.17,15265.93 26783.74,15270.06 26785.63,15272.78 26787.83,15274.08 26790.36,15273.95"/>
    </edge>
    <edge id=":10_4" function="internal">
        <lane id=":10_4_0" index="0" speed="7.42" length="19.31" shape="26782.17,15265.93 26783.22,15272.01 26782.02,15275.28 26778.56,15275.74 26772.86,15273.39"/>
    </edge>
    <edge id=":10_5" function="internal">
        <lane id=":10_5_0" index="0" speed="3.65" length="1.44" shape="26782.17,15265.93 26781.73,15267.30"/>
    </edge>
    <edge id=":10_11" function="internal">
        <lane id=":10_11_0" index="0" speed="3.65" length="3.23" shape="26781.73,15267.30 26781.08,15267.91 26780.20,15267.75 26779.09,15266.82"/>
    </edge>
    <edge id=":10_6" function="internal">
        <lane id=":10_6_0" index="0" speed="5.47" length="9.74" shape="26774.40,15270.58 26777.28,15271.77 26779.02,15271.54 26779.62,15269.89 26779.09,15266.82"/>
    </edge>
    <edge id=":10_7" function="internal">
        <lane id=":10_7_0" index="0" speed="13.20" length="16.72" shape="26774.40,15270.58 26779.03,15272.79 26783.23,15274.09 26787.01,15274.48 26790.36,15273.95"/>
    </edge>
    <edge id=":10_8" function="internal">
        <lane id=":10_8_0" index="0" speed="3.65" length="1.44" shape="26774.40,15270.58 26775.07,15271.86"/>
    </edge>
    <edge id=":10_12" function="internal">
        <lane id=":10_12_0" index="0" speed="3.65" length="3.23" shape="26775.07,15271.86 26775.03,15272.76 26774.29,15273.27 26772.86,15273.39"/>
    </edge>
    <edge id=":103_0" function="internal">
        <lane id=":103_0_0" index="0" speed="6.20" length="11.27" shape="32449.74,18469.76 32453.04,18470.51 32454.72,18472.02 32454.79,18474.27 32453.24,18477.28"/>
    </edge>
    <edge id=":103_1" function="internal">
        <lane id=":103_1_0" index="0" speed="3.97" length="3.76" shape="32450.62,18475.45 32451.13,18474.45 32451.11,18473.70 32450.55,18473.20 32449.45,18472.95"/>
    </edge>
    <edge id=":1055_0" function="internal">
        <lane id=":1055_0_0" index="0" speed="3.65" length="4.67" shape="29993.87,20361.60 29993.53,20360.19 29993.78,20359.33 29994.62,20359.02 29996.05,20359.25"/>
    </edge>
    <edge id=":1058_0" function="internal">
        <lane id=":1058_0_0" index="0" speed="13.89" length="19.30" shape="48053.62,23185.62 48052.89,23189.63 48051.03,23193.65 48048.04,23197.68 48043.91,23201.73"/>
    </edge>
    <edge id=":1058_1" function="internal">
        <lane id=":1058_1_0" index="0" speed="8.84" length="4.68" shape="48053.62,23185.62 48052.63,23189.48 48052.14,23189.97"/>
    </edge>
    <edge id=":1058_2" function="internal">
        <lane id=":1058_2_0" index="0" speed="3.65" length="1.44" shape="48053.62,23185.62 48052.77,23186.79"/>
    </edge>
    <edge id=":1058_9" function="internal">
        <lane id=":1058_9_0" index="0" speed="8.84" length="13.30" shape="48052.14,23189.97 48050.01,23192.09 48045.78,23193.46 48039.93,23193.59"/>
    </edge>
    <edge id=":1058_10" function="internal">
        <lane id=":1058_10_0" index="0" speed="3.65" length="3.23" shape="48052.77,23186.79 48051.96,23187.16 48051.17,23186.73 48050.42,23185.49"/>
    </edge>
    <edge id=":1058_3" function="internal">
        <lane id=":1058_3_0" index="0" speed="7.53" length="12.76" shape="48040.17,23190.40 48044.57,23190.37 48047.74,23189.54 48049.70,23187.92 48050.42,23185.49"/>
    </edge>
    <edge id=":1058_4" function="internal">
        <lane id=":1058_4_0" index="0" speed="7.42" length="19.29" shape="48040.17,23190.40 48046.22,23191.54 48048.86,23193.81 48048.09,23197.20 48043.91,23201.73"/>
    </edge>
    <edge id=":1058_5" function="internal">
        <lane id=":1058_5_0" index="0" speed="3.65" length="1.44" shape="48040.17,23190.40 48041.30,23191.28"/>
    </edge>
    <edge id=":1058_11" function="internal">
        <lane id=":1058_11_0" index="0" speed="3.65" length="3.23" shape="48041.30,23191.28 48041.64,23192.11 48041.19,23192.88 48039.93,23193.59"/>
    </edge>
    <edge id=":1058_6" function="internal">
        <lane id=":1058_6_0" index="0" speed="5.48" length="9.73" shape="48041.82,23199.31 48043.93,23197.02 48044.32,23195.31 48042.98,23194.16 48039.93,23193.59"/>
    </edge>
    <edge id=":1058_7" function="internal">
        <lane id=":1058_7_0" index="0" speed="13.03" length="16.69" shape="48041.82,23199.31 48045.48,23195.74 48048.14,23192.25 48049.79,23188.84 48050.42,23185.49"/>
    </edge>
    <edge id=":1058_8" function="internal">
        <lane id=":1058_8_0" index="0" speed="3.65" length="1.44" shape="48041.82,23199.31 48043.25,23199.13"/>
    </edge>
    <edge id=":1058_12" function="internal">
        <lane id=":1058_12_0" index="0" speed="3.65" length="3.23" shape="48043.25,23199.13 48044.08,23199.47 48044.30,23200.34 48043.91,23201.73"/>
    </edge>
    <edge id=":1066_0" function="internal">
        <lane id=":1066_0_0" index="0" speed="6.10" length="9.76" shape="46967.27,24132.50 46964.90,24134.03 46962.85,24134.23 46961.11,24133.12 46959.69,24130.68"/>
    </edge>
    <edge id=":1066_1" function="internal">
        <lane id=":1066_1_0" index="0" speed="3.92" length="3.25" shape="46962.65,24129.47 46963.12,24130.29 46963.70,24130.66 46964.39,24130.59 46965.18,24130.08"/>
    </edge>
    <edge id=":1069_0" function="internal">
        <lane id=":1069_0_0" index="0" speed="6.19" length="11.15" shape="37503.39,20981.96 37502.58,20985.19 37501.05,20986.83 37498.81,20986.88 37495.85,20985.35"/>
    </edge>
    <edge id=":1069_1" function="internal">
        <lane id=":1069_1_0" index="0" speed="3.96" length="3.72" shape="37497.70,20982.73 37498.68,20983.24 37499.43,20983.22 37499.94,20982.68 37500.21,20981.60"/>
    </edge>
    <edge id=":111_0" function="internal">
        <lane id=":111_0_0" index="0" speed="10.48" length="12.96" shape="25819.36,25415.82 25816.73,25412.60 25814.16,25410.30 25811.65,25408.91 25809.22,25408.44"/>
    </edge>
    <edge id=":111_1" function="internal">
        <lane id=":111_1_0" index="0" speed="7.39" length="17.21" shape="25819.36,25415.82 25816.87,25411.23 25816.91,25407.86 25819.51,25405.71 25824.66,25404.77"/>
    </edge>
    <edge id=":111_2" function="internal">
        <lane id=":111_2_0" index="0" speed="3.65" length="1.44" shape="25819.36,25415.82 25819.31,25414.38"/>
    </edge>
    <edge id=":111_9" function="internal">
        <lane id=":111_9_0" index="0" speed="3.65" length="3.23" shape="25819.31,25414.38 25819.72,25413.59 25820.60,25413.44 25821.96,25413.94"/>
    </edge>
    <edge id=":111_3" function="internal">
        <lane id=":111_3_0" index="0" speed="5.61" length="9.30" shape="25824.82,25407.97 25822.03,25408.47 25820.63,25409.64 25820.60,25411.46 25821.96,25413.94"/>
    </edge>
    <edge id=":111_4" function="internal">
        <lane id=":111_4_0" index="0" speed="13.89" length="15.61" shape="25824.82,25407.97 25809.22,25408.44"/>
    </edge>
    <edge id=":111_5" function="internal">
        <lane id=":111_5_0" index="0" speed="3.65" length="1.44" shape="25824.82,25407.97 25823.58,25407.23"/>
    </edge>
    <edge id=":111_10" function="internal">
        <lane id=":111_10_0" index="0" speed="3.65" length="3.23" shape="25823.58,25407.23 25823.14,25406.45 25823.50,25405.63 25824.66,25404.77"/>
    </edge>
    <edge id=":111_6" function="internal">
        <lane id=":111_6_0" index="0" speed="13.89" length="15.43" shape="25809.23,25405.24 25824.66,25404.77"/>
    </edge>
    <edge id=":111_7" function="internal">
        <lane id=":111_7_0" index="0" speed="11.58" length="3.26" shape="25809.23,25405.24 25812.44,25405.79"/>
    </edge>
    <edge id=":111_8" function="internal">
        <lane id=":111_8_0" index="0" speed="3.65" length="1.44" shape="25809.23,25405.24 25810.43,25406.04"/>
    </edge>
    <edge id=":111_11" function="internal">
        <lane id=":111_11_0" index="0" speed="11.58" length="12.70" shape="25812.44,25405.79 25815.63,25407.43 25818.80,25410.15 25821.96,25413.94"/>
    </edge>
    <edge id=":111_12" function="internal">
        <lane id=":111_12_0" index="0" speed="3.65" length="3.23" shape="25810.43,25406.04 25810.82,25406.85 25810.42,25407.64 25809.22,25408.44"/>
    </edge>
    <edge id=":1290_0" function="internal">
        <lane id=":1290_0_0" index="0" speed="13.89" length="1.00" shape="48141.45,21047.11 48141.50,21047.40 48141.53,21047.60 48141.53,21047.81 48141.52,21048.11"/>
    </edge>
    <edge id=":1290_1" function="internal">
        <lane id=":1290_1_0" index="0" speed="13.89" length="0.33" shape="48138.32,21047.97 48138.32,21047.88 48138.32,21047.81 48138.32,21047.74 48138.30,21047.64"/>
    </edge>
    <edge id=":1292_0" function="internal">
        <lane id=":1292_0_0" index="0" speed="13.89" length="0.11" shape="34438.29,18037.19 34438.26,18037.30"/>
    </edge>
    <edge id=":1292_1" function="internal">
        <lane id=":1292_1_0" index="0" speed="13.89" length="0.34" shape="34435.19,18036.38 34435.30,18036.07"/>
    </edge>
    <edge id=":1304_0" function="internal">
        <lane id=":1304_0_0" index="0" speed="13.89" length="17.78" shape="36416.07,18145.76 36411.88,18145.31 36407.16,18145.08 36402.47,18145.28 36398.40,18146.10"/>
    </edge>
    <edge id=":1304_1" function="internal">
        <lane id=":1304_1_0" index="0" speed="10.55" length="20.74" shape="36416.07,18145.76 36410.14,18144.30 36405.75,18141.74 36402.89,18138.09 36401.56,18133.35"/>
    </edge>
    <edge id=":1304_2" function="internal">
        <lane id=":1304_2_0" index="0" speed="7.46" length="9.03" shape="36416.07,18145.76 36409.81,18144.21 36407.95,18142.42"/>
    </edge>
    <edge id=":1304_3" function="internal">
        <lane id=":1304_3_0" index="0" speed="3.65" length="1.44" shape="36416.07,18145.76 36414.99,18144.81"/>
    </edge>
    <edge id=":1304_16" function="internal">
        <lane id=":1304_16_0" index="0" speed="7.46" length="10.92" shape="36407.95,18142.42 36407.27,18141.77 36408.44,18138.44 36413.33,18134.24"/>
    </edge>
    <edge id=":1304_17" function="internal">
        <lane id=":1304_17_0" index="0" speed="3.65" length="3.23" shape="36414.99,18144.81 36414.70,18143.96 36415.20,18143.22 36416.50,18142.59"/>
    </edge>
    <edge id=":1304_4" function="internal">
        <lane id=":1304_4_0" index="0" speed="5.46" length="9.89" shape="36415.15,18136.88 36412.72,18138.96 36412.14,18140.61 36413.40,18141.82 36416.50,18142.59"/>
    </edge>
    <edge id=":1304_5" function="internal">
        <lane id=":1304_5_0" index="0" speed="13.89" length="19.15" shape="36415.15,18136.88 36411.46,18139.29 36407.01,18141.96 36402.44,18144.39 36398.40,18146.10"/>
    </edge>
    <edge id=":1304_6" function="internal">
        <lane id=":1304_6_0" index="0" speed="7.83" length="6.57" shape="36415.15,18136.88 36409.68,18139.83 36409.32,18139.87"/>
    </edge>
    <edge id=":1304_7" function="internal">
        <lane id=":1304_7_0" index="0" speed="3.65" length="1.44" shape="36415.15,18136.88 36413.70,18136.90"/>
    </edge>
    <edge id=":1304_18" function="internal">
        <lane id=":1304_18_0" index="0" speed="7.83" length="12.11" shape="36409.32,18139.87 36405.60,18140.23 36402.89,18138.07 36401.56,18133.35"/>
    </edge>
    <edge id=":1304_19" function="internal">
        <lane id=":1304_19_0" index="0" speed="3.65" length="3.23" shape="36413.70,18136.90 36412.92,18136.47 36412.80,18135.58 36413.33,18134.24"/>
    </edge>
    <edge id=":1304_8" function="internal">
        <lane id=":1304_8_0" index="0" speed="6.24" length="11.33" shape="36404.74,18133.02 36405.55,18135.59 36407.24,18136.65 36409.84,18136.20 36413.33,18134.24"/>
    </edge>
    <edge id=":1304_9" function="internal">
        <lane id=":1304_9_0" index="0" speed="9.45" length="16.46" shape="36404.74,18133.02 36405.80,18136.64 36408.11,18139.45 36411.68,18141.43 36416.50,18142.59"/>
    </edge>
    <edge id=":1304_10" function="internal">
        <lane id=":1304_10_0" index="0" speed="9.16" length="2.60" shape="36404.74,18133.02 36404.76,18135.61"/>
    </edge>
    <edge id=":1304_11" function="internal">
        <lane id=":1304_11_0" index="0" speed="3.65" length="1.28" shape="36404.74,18133.02 36404.15,18134.15"/>
    </edge>
    <edge id=":1304_20" function="internal">
        <lane id=":1304_20_0" index="0" speed="9.16" length="13.24" shape="36404.76,18135.61 36404.77,18137.81 36403.72,18141.59 36401.60,18144.35 36398.40,18146.10"/>
    </edge>
    <edge id=":1304_21" function="internal">
        <lane id=":1304_21_0" index="0" speed="3.65" length="3.39" shape="36404.15,18134.15 36404.08,18134.29 36403.32,18134.78 36402.48,18134.46 36401.56,18133.35"/>
    </edge>
    <edge id=":1304_12" function="internal">
        <lane id=":1304_12_0" index="0" speed="7.87" length="11.47" shape="36397.40,18143.06 36399.54,18141.83 36400.95,18139.80 36401.62,18136.98 36401.56,18133.35"/>
    </edge>
    <edge id=":1304_13" function="internal">
        <lane id=":1304_13_0" index="0" speed="13.89" length="18.25" shape="36397.40,18143.06 36401.31,18141.42 36405.60,18139.12 36409.77,18136.59 36413.33,18134.24"/>
    </edge>
    <edge id=":1304_14" function="internal">
        <lane id=":1304_14_0" index="0" speed="13.89" length="3.44" shape="36397.40,18143.06 36400.77,18142.40"/>
    </edge>
    <edge id=":1304_15" function="internal">
        <lane id=":1304_15_0" index="0" speed="3.65" length="1.44" shape="36397.40,18143.06 36398.79,18143.44"/>
    </edge>
    <edge id=":1304_22" function="internal">
        <lane id=":1304_22_0" index="0" speed="13.89" length="15.78" shape="36400.77,18142.40 36401.69,18142.23 36406.87,18141.98 36412.09,18142.16 36416.50,18142.59"/>
    </edge>
    <edge id=":1304_23" function="internal">
        <lane id=":1304_23_0" index="0" speed="3.65" length="3.23" shape="36398.79,18143.44 36399.42,18144.07 36399.29,18144.96 36398.40,18146.10"/>
    </edge>
    <edge id=":1408_0" function="internal">
        <lane id=":1408_0_0" index="0" speed="8.97" length="11.86" shape="14823.34,29919.46 14822.73,29917.08 14821.21,29914.95 14818.79,29913.05 14815.47,29911.40"/>
    </edge>
    <edge id=":1408_1" function="internal">
        <lane id=":1408_1_0" index="0" speed="13.89" length="15.53" shape="14823.34,29919.46 14822.27,29903.97"/>
    </edge>
    <edge id=":1408_2" function="internal">
        <lane id=":1408_2_0" index="0" speed="10.79" length="3.59" shape="14823.34,29919.46 14823.68,29916.07 14823.76,29915.90"/>
    </edge>
    <edge id=":1408_3" function="internal">
        <lane id=":1408_3_0" index="0" speed="3.65" length="1.44" shape="14823.34,29919.46 14824.06,29918.21"/>
    </edge>
    <edge id=":1408_16" function="internal">
        <lane id=":1408_16_0" index="0" speed="10.79" length="12.27" shape="14823.76,29915.90 14825.17,29912.82 14827.79,29909.69 14831.55,29906.70"/>
    </edge>
    <edge id=":1408_17" function="internal">
        <lane id=":1408_17_0" index="0" speed="3.65" length="3.23" shape="14824.06,29918.21 14824.83,29917.76 14825.66,29918.11 14826.53,29919.25"/>
    </edge>
    <edge id=":1408_4" function="internal">
        <lane id=":1408_4_0" index="0" speed="9.64" length="12.54" shape="14833.34,29909.35 14830.24,29911.78 14828.07,29914.24 14826.83,29916.73 14826.53,29919.25"/>
    </edge>
    <edge id=":1408_5" function="internal">
        <lane id=":1408_5_0" index="0" speed="12.16" length="18.76" shape="14833.34,29909.35 14829.00,29911.66 14824.57,29912.77 14820.06,29912.68 14815.47,29911.40"/>
    </edge>
    <edge id=":1408_6" function="internal">
        <lane id=":1408_6_0" index="0" speed="7.41" length="6.79" shape="14833.34,29909.35 14828.83,29911.60 14827.09,29911.52"/>
    </edge>
    <edge id=":1408_7" function="internal">
        <lane id=":1408_7_0" index="0" speed="3.65" length="1.44" shape="14833.34,29909.35 14831.90,29909.36"/>
    </edge>
    <edge id=":1408_18" function="internal">
        <lane id=":1408_18_0" index="0" speed="7.41" length="10.01" shape="14827.09,29911.52 14825.48,29911.45 14823.29,29908.91 14822.27,29903.97"/>
    </edge>
    <edge id=":1408_19" function="internal">
        <lane id=":1408_19_0" index="0" speed="3.65" length="3.23" shape="14831.90,29909.36 14831.12,29908.92 14831.01,29908.04 14831.55,29906.70"/>
    </edge>
    <edge id=":1408_8" function="internal">
        <lane id=":1408_8_0" index="0" speed="5.67" length="9.24" shape="14825.46,29903.74 14826.02,29906.46 14827.23,29907.86 14829.07,29907.94 14831.55,29906.70"/>
    </edge>
    <edge id=":1408_9" function="internal">
        <lane id=":1408_9_0" index="0" speed="13.89" length="15.55" shape="14825.46,29903.74 14826.53,29919.25"/>
    </edge>
    <edge id=":1408_10" function="internal">
        <lane id=":1408_10_0" index="0" speed="7.50" length="5.02" shape="14825.46,29903.74 14825.16,29908.75"/>
    </edge>
    <edge id=":1408_11" function="internal">
        <lane id=":1408_11_0" index="0" speed="3.65" length="1.44" shape="14825.46,29903.74 14824.75,29904.99"/>
    </edge>
    <edge id=":1408_20" function="internal">
        <lane id=":1408_20_0" index="0" speed="7.50" length="11.62" shape="14825.16,29908.75 14823.40,29911.69 14820.17,29912.58 14815.47,29911.40"/>
    </edge>
    <edge id=":1408_21" function="internal">
        <lane id=":1408_21_0" index="0" speed="3.65" length="3.23" shape="14824.75,29904.99 14823.98,29905.45 14823.15,29905.11 14822.27,29903.97"/>
    </edge>
    <edge id=":1408_12" function="internal">
        <lane id=":1408_12_0" index="0" speed="5.82" length="9.45" shape="14816.68,29908.43 14819.31,29909.08 14821.12,29908.56 14822.11,29906.85 14822.27,29903.97"/>
    </edge>
    <edge id=":1408_13" function="internal">
        <lane id=":1408_13_0" index="0" speed="11.13" length="15.62" shape="14816.68,29908.43 14820.49,29909.50 14824.24,29909.56 14827.93,29908.63 14831.55,29906.70"/>
    </edge>
    <edge id=":1408_14" function="internal">
        <lane id=":1408_14_0" index="0" speed="10.17" length="3.54" shape="14816.68,29908.43 14819.83,29910.04"/>
    </edge>
    <edge id=":1408_15" function="internal">
        <lane id=":1408_15_0" index="0" speed="3.65" length="1.33" shape="14816.68,29908.43 14817.42,29909.53"/>
    </edge>
    <edge id=":1408_22" function="internal">
        <lane id=":1408_22_0" index="0" speed="10.17" length="11.90" shape="14819.83,29910.04 14820.82,29910.54 14823.84,29913.05 14825.75,29915.95 14826.53,29919.25"/>
    </edge>
    <edge id=":1408_23" function="internal">
        <lane id=":1408_23_0" index="0" speed="3.65" length="3.35" shape="14817.42,29909.53 14817.49,29909.63 14817.56,29910.52 14816.88,29911.11 14815.47,29911.40"/>
    </edge>
    <edge id=":1410_0" function="internal">
        <lane id=":1410_0_0" index="0" speed="6.49" length="4.18" shape="14396.05,32274.85 14395.93,32273.78 14396.05,32272.77 14396.39,32271.81 14396.96,32270.90"/>
    </edge>
    <edge id=":1410_1" function="internal">
        <lane id=":1410_1_0" index="0" speed="4.12" length="1.39" shape="14399.48,32272.87 14399.29,32273.17 14399.18,32273.49 14399.14,32273.83 14399.18,32274.18"/>
    </edge>
    <edge id=":1412_0" function="internal">
        <lane id=":1412_0_0" index="0" speed="8.14" length="10.73" shape="13832.67,31633.49 13829.84,31633.97 13827.56,31635.12 13825.83,31636.96 13824.63,31639.47"/>
    </edge>
    <edge id=":1412_1" function="internal">
        <lane id=":1412_1_0" index="0" speed="13.89" length="16.26" shape="13832.67,31633.49 13828.73,31633.41 13824.58,31632.89 13820.48,31632.02 13816.70,31630.89"/>
    </edge>
    <edge id=":1412_2" function="internal">
        <lane id=":1412_2_0" index="0" speed="8.19" length="4.37" shape="13832.67,31633.49 13828.74,31633.02 13828.39,31632.80"/>
    </edge>
    <edge id=":1412_3" function="internal">
        <lane id=":1412_3_0" index="0" speed="3.65" length="1.44" shape="13832.67,31633.49 13831.44,31632.74"/>
    </edge>
    <edge id=":1412_16" function="internal">
        <lane id=":1412_16_0" index="0" speed="8.19" length="10.95" shape="13828.39,31632.80 13825.93,31631.23 13824.22,31628.11 13823.63,31623.67"/>
    </edge>
    <edge id=":1412_17" function="internal">
        <lane id=":1412_17_0" index="0" speed="3.65" length="3.23" shape="13831.44,31632.74 13831.00,31631.96 13831.37,31631.15 13832.53,31630.30"/>
    </edge>
    <edge id=":1412_4" function="internal">
        <lane id=":1412_4_0" index="0" speed="6.74" length="10.03" shape="13826.83,31623.65 13827.21,31626.65 13828.28,31628.75 13830.06,31629.97 13832.53,31630.30"/>
    </edge>
    <edge id=":1412_5" function="internal">
        <lane id=":1412_5_0" index="0" speed="13.89" length="16.03" shape="13826.83,31623.65 13826.72,31627.56 13826.32,31631.65 13825.63,31635.70 13824.63,31639.47"/>
    </edge>
    <edge id=":1412_6" function="internal">
        <lane id=":1412_6_0" index="0" speed="7.53" length="4.84" shape="13826.83,31623.65 13826.23,31628.16 13826.06,31628.39"/>
    </edge>
    <edge id=":1412_7" function="internal">
        <lane id=":1412_7_0" index="0" speed="3.65" length="1.44" shape="13826.83,31623.65 13826.04,31624.86"/>
    </edge>
    <edge id=":1412_18" function="internal">
        <lane id=":1412_18_0" index="0" speed="7.53" length="10.87" shape="13826.06,31628.39 13824.33,31630.87 13821.16,31631.78 13816.70,31630.89"/>
    </edge>
    <edge id=":1412_19" function="internal">
        <lane id=":1412_19_0" index="0" speed="3.65" length="3.23" shape="13826.04,31624.86 13825.24,31625.26 13824.44,31624.87 13823.63,31623.67"/>
    </edge>
    <edge id=":1412_8" function="internal">
        <lane id=":1412_8_0" index="0" speed="5.89" length="9.11" shape="13817.75,31627.87 13820.34,31628.39 13822.18,31627.86 13823.28,31626.29 13823.63,31623.67"/>
    </edge>
    <edge id=":1412_9" function="internal">
        <lane id=":1412_9_0" index="0" speed="13.89" length="15.06" shape="13817.75,31627.87 13821.35,31628.98 13825.04,31629.78 13828.78,31630.24 13832.53,31630.30"/>
    </edge>
    <edge id=":1412_10" function="internal">
        <lane id=":1412_10_0" index="0" speed="8.36" length="4.15" shape="13817.75,31627.87 13821.48,31629.71"/>
    </edge>
    <edge id=":1412_11" function="internal">
        <lane id=":1412_11_0" index="0" speed="3.65" length="1.44" shape="13817.75,31627.87 13818.62,31629.02"/>
    </edge>
    <edge id=":1412_20" function="internal">
        <lane id=":1412_20_0" index="0" speed="8.36" length="11.12" shape="13821.48,31629.71 13821.76,31629.85 13824.24,31632.44 13825.20,31635.65 13824.63,31639.47"/>
    </edge>
    <edge id=":1412_21" function="internal">
        <lane id=":1412_21_0" index="0" speed="3.65" length="3.23" shape="13818.62,31629.02 13818.74,31629.91 13818.09,31630.53 13816.70,31630.89"/>
    </edge>
    <edge id=":1412_12" function="internal">