<configuration><input><net-file value="rand4.net.xml" /></input></configuration>