<?xml version="1.0" encoding="UTF-8"?>

<!-- generated on 2025-04-13 03:47:21 by Eclipse SUMO netgenerate Version 1.22.0
<netgenerateConfiguration xmlns:xsi="http://www.w3.org/2001/XMLSchema-instance" xsi:noNamespaceSchemaLocation="http://sumo.dlr.de/xsd/netgenerateConfiguration.xsd">

    <random_network>
        <rand value="true"/>
        <rand.iterations value="8"/>
        <rand.max-distance value="1440.6714613308934"/>
        <rand.min-distance value="150.0"/>
        <rand.min-angle value="35.69489785536668"/>
        <rand.neighbor-dist1 value="3.0"/>
        <rand.neighbor-dist2 value="1.0"/>
        <rand.neighbor-dist3 value="0.0"/>
        <rand.neighbor-dist4 value="5.0"/>
        <rand.neighbor-dist5 value="0.0"/>
        <rand.neighbor-dist6 value="0.0"/>
    </random_network>

    <output>
        <output-file value="configs/rand-configs/rand4.net.xml"/>
    </output>

    <tls_building>
        <tls.guess value="true"/>
        <tls.guess.threshold value="0"/>
    </tls_building>

</netgenerateConfiguration>
-->

<net version="1.20" junctionCornerDetail="5" limitTurnSpeed="5.50" xmlns:xsi="http://www.w3.org/2001/XMLSchema-instance" xsi:noNamespaceSchemaLocation="http://sumo.dlr.de/xsd/net_file.xsd">

    <location netOffset="1021.43,1264.07" convBoundary="0.00,0.00,2132.33,2373.23" origBoundary="-1021.43,-1264.07,1110.91,1109.16" projParameter="!"/>

    <edge id=":1_0" function="internal">
        <lane id=":1_0_0" index="0" speed="11.26" length="16.20" shape="1019.94,1271.47 1019.32,1268.25 1017.54,1265.11 1014.61,1262.04 1010.52,1259.05"/>
    </edge>
    <edge id=":1_1" function="internal">
        <lane id=":1_1_0" index="0" speed="13.89" length="18.84" shape="1019.94,1271.47 1019.63,1267.14 1018.93,1262.12 1018.02,1257.13 1017.09,1252.87"/>
    </edge>
    <edge id=":1_2" function="internal">
        <lane id=":1_2_0" index="0" speed="7.91" length="3.57" shape="1019.94,1271.47 1020.40,1267.92"/>
    </edge>
    <edge id=":1_3" function="internal">
        <lane id=":1_3_0" index="0" speed="3.65" length="1.44" shape="1019.94,1271.47 1020.72,1270.26"/>
    </edge>
    <edge id=":1_16" function="internal">
        <lane id=":1_16_0" index="0" speed="7.91" length="10.83" shape="1020.40,1267.92 1020.45,1267.52 1022.10,1264.76 1024.90,1263.16 1028.86,1262.75"/>
    </edge>
    <edge id=":1_17" function="internal">
        <lane id=":1_17_0" index="0" speed="3.65" length="3.23" shape="1020.72,1270.26 1021.52,1269.84 1022.32,1270.23 1023.14,1271.42"/>
    </edge>
    <edge id=":1_4" function="internal">
        <lane id=":1_4_0" index="0" speed="6.39" length="9.04" shape="1028.74,1265.95 1026.26,1266.21 1024.50,1267.21 1023.46,1268.94 1023.14,1271.42"/>
    </edge>
    <edge id=":1_5" function="internal">
        <lane id=":1_5_0" index="0" speed="13.89" length="19.61" shape="1028.74,1265.95 1024.38,1265.16 1019.34,1263.43 1014.45,1261.23 1010.52,1259.05"/>
    </edge>
    <edge id=":1_6" function="internal">
        <lane id=":1_6_0" index="0" speed="10.07" length="4.78" shape="1028.74,1265.95 1025.30,1264.63 1024.48,1263.89"/>
    </edge>
    <edge id=":1_7" function="internal">
        <lane id=":1_7_0" index="0" speed="3.65" length="1.44" shape="1028.74,1265.95 1027.57,1265.10"/>
    </edge>
    <edge id=":1_18" function="internal">
        <lane id=":1_18_0" index="0" speed="10.07" length="13.48" shape="1024.48,1263.89 1021.82,1261.48 1018.88,1257.29 1017.09,1252.87"/>
    </edge>
    <edge id=":1_19" function="internal">
        <lane id=":1_19_0" index="0" speed="3.65" length="3.23" shape="1027.57,1265.10 1027.20,1264.29 1027.63,1263.50 1028.86,1262.75"/>
    </edge>
    <edge id=":1_8" function="internal">
        <lane id=":1_8_0" index="0" speed="9.08" length="14.69" shape="1020.20,1252.13 1021.68,1256.69 1023.62,1259.98 1026.01,1262.00 1028.86,1262.75"/>
    </edge>
    <edge id=":1_9" function="internal">
        <lane id=":1_9_0" index="0" speed="13.89" length="19.54" shape="1020.20,1252.13 1021.15,1256.49 1022.08,1261.72 1022.81,1266.98 1023.14,1271.42"/>
    </edge>
    <edge id=":1_10" function="internal">
        <lane id=":1_10_0" index="0" speed="7.43" length="6.42" shape="1020.20,1252.13 1020.99,1258.34 1020.93,1258.48"/>
    </edge>
    <edge id=":1_11" function="internal">
        <lane id=":1_11_0" index="0" speed="3.65" length="1.44" shape="1020.20,1252.13 1019.71,1253.48"/>
    </edge>
    <edge id=":1_20" function="internal">
        <lane id=":1_20_0" index="0" speed="7.43" length="13.09" shape="1020.93,1258.48 1019.63,1261.56 1016.15,1261.80 1010.52,1259.05"/>
    </edge>
    <edge id=":1_21" function="internal">
        <lane id=":1_21_0" index="0" speed="3.65" length="3.23" shape="1019.71,1253.48 1019.02,1254.05 1018.15,1253.85 1017.09,1252.87"/>
    </edge>
    <edge id=":1_12" function="internal">
        <lane id=":1_12_0" index="0" speed="5.47" length="9.79" shape="1012.24,1256.34 1015.06,1257.72 1016.81,1257.61 1017.49,1255.99 1017.09,1252.87"/>
    </edge>
    <edge id=":1_13" function="internal">
        <lane id=":1_13_0" index="0" speed="13.89" length="17.96" shape="1012.24,1256.34 1015.91,1258.45 1020.26,1260.48 1024.75,1262.04 1028.86,1262.75"/>
    </edge>
    <edge id=":1_14" function="internal">
        <lane id=":1_14_0" index="0" speed="12.18" length="5.03" shape="1012.24,1256.34 1016.14,1259.52"/>
    </edge>
    <edge id=":1_15" function="internal">
        <lane id=":1_15_0" index="0" speed="3.65" length="1.44" shape="1012.24,1256.34 1012.82,1257.66"/>
    </edge>
    <edge id=":1_22" function="internal">
        <lane id=":1_22_0" index="0" speed="12.18" length="14.02" shape="1016.14,1259.52 1019.63,1263.58 1022.15,1267.79 1023.14,1271.42"/>
    </edge>
    <edge id=":1_23" function="internal">
        <lane id=":1_23_0" index="0" speed="3.65" length="3.23" shape="1012.82,1257.66 1012.73,1258.55 1011.96,1259.01 1010.52,1259.05"/>
    </edge>
    <edge id=":10_0" function="internal">
        <lane id=":10_0_0" index="0" speed="3.65" length="4.67" shape="0.47,224.30 -0.91,223.89 -1.53,223.25 -1.38,222.36 -0.47,221.24"/>
    </edge>
    <edge id=":16_0" function="internal">
        <lane id=":16_0_0" index="0" speed="6.17" length="6.08" shape="74.96,1607.14 73.85,1605.99 73.22,1604.69 73.10,1603.27 73.46,1601.70"/>
    </edge>
    <edge id=":16_1" function="internal">
        <lane id=":16_1_0" index="0" speed="3.95" length="2.03" shape="76.46,1602.83 76.33,1603.35 76.38,1603.82 76.59,1604.25 76.96,1604.64"/>
    </edge>
    <edge id=":19_0" function="internal">
        <lane id=":19_0_0" index="0" speed="3.65" length="4.67" shape="1961.49,1584.37 1962.93,1584.20 1963.75,1584.55 1963.96,1585.42 1963.57,1586.80"/>
    </edge>
    <edge id=":2_0" function="internal">
        <lane id=":2_0_0" index="0" speed="3.90" length="2.70" shape="717.14,3.70 716.86,3.00 716.43,2.58 715.85,2.42 715.11,2.54"/>
    </edge>
    <edge id=":2_1" function="internal">
        <lane id=":2_1_0" index="0" speed="6.07" length="8.11" shape="714.16,-0.52 716.37,-0.87 718.13,-0.41 719.42,0.86 720.25,2.95"/>
    </edge>
    <edge id=":4_0" function="internal">
        <lane id=":4_0_0" index="0" speed="3.91" length="2.99" shape="361.58,847.47 360.81,847.13 360.16,847.14 359.63,847.52 359.22,848.26"/>
    </edge>
    <edge id=":4_1" function="internal">
        <lane id=":4_1_0" index="0" speed="6.08" length="8.97" shape="356.23,847.14 357.44,844.91 359.03,843.78 360.98,843.73 363.29,844.77"/>
    </edge>
    <edge id=":6_0" function="internal">
        <lane id=":6_0_0" index="0" speed="10.27" length="20.52" shape="1048.10,2367.45 1043.48,2370.41 1038.82,2371.46 1034.14,2370.57 1029.42,2367.77"/>
    </edge>
    <edge id=":6_1" function="internal">
        <lane id=":6_1_0" index="0" speed="7.38" length="8.63" shape="1048.10,2367.45 1043.36,2370.59 1040.42,2370.77"/>
    </edge>
    <edge id=":6_2" function="internal">
        <lane id=":6_2_0" index="0" speed="3.65" length="1.44" shape="1048.10,2367.45 1046.67,2367.62"/>
    </edge>
    <edge id=":6_9" function="internal">
        <lane id=":6_9_0" index="0" speed="7.38" length="9.59" shape="1040.42,2370.77 1039.94,2370.80 1037.85,2368.10 1037.08,2362.47"/>
    </edge>
    <edge id=":6_10" function="internal">
        <lane id=":6_10_0" index="0" speed="3.65" length="3.23" shape="1046.67,2367.62 1045.84,2367.27 1045.63,2366.40 1046.02,2365.01"/>
    </edge>
    <edge id=":6_3" function="internal">
        <lane id=":6_3_0" index="0" speed="5.52" length="9.49" shape="1040.28,2362.41 1040.68,2365.35 1041.77,2366.76 1043.55,2366.65 1046.02,2365.01"/>
    </edge>
    <edge id=":6_4" function="internal">
        <lane id=":6_4_0" index="0" speed="7.38" length="18.21" shape="1040.28,2362.41 1039.68,2368.07 1037.68,2370.84 1034.25,2370.74 1029.42,2367.77"/>
    </edge>
    <edge id=":6_5" function="internal">
        <lane id=":6_5_0" index="0" speed="3.65" length="1.44" shape="1040.28,2362.41 1039.50,2363.63"/>
    </edge>
    <edge id=":6_11" function="internal">
        <lane id=":6_11_0" index="0" speed="3.65" length="3.23" shape="1039.50,2363.63 1038.70,2364.04 1037.90,2363.65 1037.08,2362.47"/>
    </edge>
    <edge id=":6_6" function="internal">
        <lane id=":6_6_0" index="0" speed="5.53" length="9.50" shape="1031.42,2365.26 1033.94,2366.82 1035.72,2366.87 1036.77,2365.42 1037.08,2362.47"/>
    </edge>
    <edge id=":6_7" function="internal">
        <lane id=":6_7_0" index="0" speed="9.13" length="16.05" shape="1031.42,2365.26 1035.10,2367.46 1038.77,2368.15 1042.41,2367.33 1046.02,2365.01"/>
    </edge>
    <edge id=":6_8" function="internal">
        <lane id=":6_8_0" index="0" speed="3.65" length="1.31" shape="1031.42,2365.26 1031.82,2366.51"/>
    </edge>
    <edge id=":6_12" function="internal">
        <lane id=":6_12_0" index="0" speed="3.65" length="3.37" shape="1031.82,2366.51 1031.86,2366.64 1031.67,2367.51 1030.86,2367.89 1029.42,2367.77"/>
    </edge>
    <edge id=":8_0" function="internal">
        <lane id=":8_0_0" index="0" speed="3.65" length="4.67" shape="2132.39,1304.61 2133.56,1305.46 2133.93,1306.27 2133.50,1307.06 2132.27,1307.81"/>
    </edge>

    <edge id="-11" from="10" to="2" priority="-1">
        <lane id="-11_0" index="0" speed="13.89" length="748.25" shape="-0.47,221.24 714.16,-0.52"/>
    </edge>
    <edge id="-17" from="16" to="4" priority="-1">
        <lane id="-17_0" index="0" speed="13.89" length="805.81" shape="73.46,1601.70 356.23,847.14"/>
    </edge>
    <edge id="-18" from="16" to="6" priority="-1">
        <lane id="-18_0" index="0" speed="13.89" length="1220.47" shape="76.96,1604.64 1031.42,2365.26"/>
    </edge>
    <edge id="-20" from="19" to="6" priority="-1">
        <lane id="-20_0" index="0" speed="13.89" length="1203.12" shape="1963.57,1586.80 1048.10,2367.45"/>
    </edge>
    <edge id="-3" from="2" to="1" priority="-1">
        <lane id="-3_0" index="0" speed="13.89" length="1284.69" shape="720.25,2.95 1020.20,1252.13"/>
    </edge>
    <edge id="-5" from="4" to="1" priority="-1">
        <lane id="-5_0" index="0" speed="13.89" length="768.46" shape="363.29,844.77 1012.24,1256.34"/>
    </edge>
    <edge id="-7" from="6" to="1" priority="-1">
        <lane id="-7_0" index="0" speed="13.89" length="1091.13" shape="1037.08,2362.47 1019.94,1271.47"/>
    </edge>
    <edge id="-9" from="8" to="1" priority="-1">
        <lane id="-9_0" index="0" speed="13.89" length="1104.33" shape="2132.27,1307.81 1028.74,1265.95"/>
    </edge>
    <edge id="11" from="2" to="10" priority="-1">
        <lane id="11_0" index="0" speed="13.89" length="748.25" shape="715.11,2.54 0.47,224.30"/>
    </edge>
    <edge id="17" from="4" to="16" priority="-1">
        <lane id="17_0" index="0" speed="13.89" length="805.81" shape="359.22,848.26 76.46,1602.83"/>
    </edge>
    <edge id="18" from="6" to="16" priority="-1">
        <lane id="18_0" index="0" speed="13.89" length="1220.47" shape="1029.42,2367.77 74.96,1607.14"/>
    </edge>
    <edge id="20" from="6" to="19" priority="-1">
        <lane id="20_0" index="0" speed="13.89" length="1203.12" shape="1046.02,2365.01 1961.49,1584.37"/>
    </edge>
    <edge id="3" from="1" to="2" priority="-1">
        <lane id="3_0" index="0" speed="13.89" length="1284.69" shape="1017.09,1252.87 717.14,3.70"/>
    </edge>
    <edge id="5" from="1" to="4" priority="-1">
        <lane id="5_0" index="0" speed="13.89" length="768.46" shape="1010.52,1259.05 361.58,847.47"/>
    </edge>
    <edge id="7" from="1" to="6" priority="-1">
        <lane id="7_0" index="0" speed="13.89" length="1091.13" shape="1023.14,1271.42 1040.28,2362.41"/>
    </edge>
    <edge id="9" from="1" to="8" priority="-1">
        <lane id="9_0" index="0" speed="13.89" length="1104.33" shape="1028.86,1262.75 2132.39,1304.61"/>
    </edge>

    <tlLogic id="1" type="static" programID="0" offset="0">
        <phase duration="42" state="GGggrrrrGGggrrrr"/>
        <phase duration="3"  state="yyyyrrrryyyyrrrr"/>
        <phase duration="42" state="rrrrGGggrrrrGGgg"/>
        <phase duration="3"  state="rrrryyyyrrrryyyy"/>
    </tlLogic>
    <tlLogic id="6" type="static" programID="0" offset="0">
        <phase duration="42" state="GggrrrGGg"/>
        <phase duration="3"  state="yyyrrrGyy"/>
        <phase duration="42" state="rrrGGgGrr"/>
        <phase duration="3"  state="rrryyyGrr"/>
    </tlLogic>

    <junction id="1" type="traffic_light" x="1021.43" y="1264.07" incLanes="-7_0 -9_0 -3_0 -5_0" intLanes=":1_0_0 :1_1_0 :1_16_0 :1_17_0 :1_4_0 :1_5_0 :1_18_0 :1_19_0 :1_8_0 :1_9_0 :1_20_0 :1_21_0 :1_12_0 :1_13_0 :1_22_0 :1_23_0" shape="1018.34,1271.49 1024.74,1271.39 1025.15,1269.19 1025.69,1268.43 1026.46,1267.91 1027.46,1267.61 1028.68,1267.55 1028.92,1261.15 1025.93,1260.02 1024.66,1258.71 1023.54,1256.89 1022.57,1254.57 1021.76,1251.75 1015.54,1253.25 1015.68,1255.17 1015.39,1255.63 1014.87,1255.75 1014.10,1255.54 1013.09,1254.99 1009.67,1260.40 1012.29,1262.22 1014.45,1264.05 1016.13,1265.90 1017.34,1267.75 1018.08,1269.62">
        <request index="0"  response="0000000000000000" foes="1000010000100000" cont="0"/>
        <request index="1"  response="0100000001000000" foes="0111110001100000" cont="0"/>
        <request index="2"  response="0100001101000000" foes="0110001111100000" cont="1"/>
        <request index="3"  response="0100001000010000" foes="0100001000010000" cont="1"/>
        <request index="4"  response="0000001000000000" foes="0100001000001000" cont="0"/>
        <request index="5"  response="0000011000000111" foes="1100011000000111" cont="0"/>
        <request index="6"  response="0011011000000110" foes="0011111000000110" cont="1"/>
        <request index="7"  response="0010000100000100" foes="0010000100000100" cont="1"/>
        <request index="8"  response="0000000000000000" foes="0010000010000100" cont="0"/>
        <request index="9"  response="0100000001000000" foes="0110000001111100" cont="0"/>
        <request index="10" response="0100000001000011" foes="1110000001100011" cont="1"/>
        <request index="11" response="0001000001000010" foes="0001000001000010" cont="1"/>
        <request index="12" response="0000000000000010" foes="0000100001000010" cont="0"/>
        <request index="13" response="0000011100000110" foes="0000011111000110" cont="0"/>
        <request index="14" response="0000011000110110" foes="0000011000111110" cont="1"/>
        <request index="15" response="0000010000100001" foes="0000010000100001" cont="1"/>
    </junction>
    <junction id="10" type="priority" x="0.00" y="222.77" incLanes="11_0" intLanes=":10_0_0" shape="0.00,222.77 0.95,225.83 0.00,222.77">
        <request index="0" response="0" foes="0" cont="0"/>
    </junction>
    <junction id="16" type="priority" x="74.14" y="1604.44" incLanes="18_0 17_0" intLanes=":16_0_0 :16_1_0" shape="73.97,1608.39 77.95,1603.39 71.96,1601.14 71.46,1603.88 71.65,1605.13 72.13,1606.30 72.90,1607.39">
        <request index="0" response="00" foes="00" cont="0"/>
        <request index="1" response="00" foes="00" cont="0"/>
    </junction>
    <junction id="19" type="priority" x="1962.53" y="1585.59" incLanes="20_0" intLanes=":19_0_0" shape="1962.53,1585.59 1960.46,1583.15 1962.53,1585.59">
        <request index="0" response="0" foes="0" cont="0"/>
    </junction>
    <junction id="2" type="priority" x="717.90" y="0.00" incLanes="3_0 -11_0" intLanes=":2_0_0 :2_1_0" shape="715.58,4.07 721.80,2.57 721.14,0.60 720.19,-0.89 718.98,-1.90 717.49,-2.43 715.72,-2.48 713.68,-2.04">
        <request index="0" response="00" foes="00" cont="0"/>
        <request index="1" response="00" foes="00" cont="0"/>
    </junction>
    <junction id="4" type="priority" x="359.11" y="844.01" incLanes="5_0 -17_0" intLanes=":4_0_0 :4_1_0" shape="360.72,848.82 364.15,843.42 362.04,842.33 360.14,841.89 358.46,842.10 357.00,842.95 355.76,844.44 354.73,846.58">
        <request index="0" response="00" foes="00" cont="0"/>
        <request index="1" response="00" foes="00" cont="0"/>
    </junction>
    <junction id="6" type="traffic_light" x="1038.85" y="2373.23" incLanes="-20_0 7_0 -18_0" intLanes=":6_0_0 :6_9_0 :6_10_0 :6_3_0 :6_4_0 :6_11_0 :6_6_0 :6_7_0 :6_12_0" shape="1049.14,2368.66 1044.98,2363.79 1043.29,2364.79 1042.69,2364.74 1042.25,2364.32 1041.98,2363.54 1041.88,2362.39 1035.48,2362.49 1035.17,2364.44 1034.74,2364.88 1034.14,2364.95 1033.37,2364.66 1032.41,2364.01 1028.42,2369.02 1031.91,2371.33 1035.39,2372.69 1038.85,2373.11 1042.29,2372.58 1045.72,2371.09">
        <request index="0" response="000000000" foes="100010000" cont="0"/>
        <request index="1" response="011000000" foes="011110000" cont="1"/>
        <request index="2" response="010001000" foes="010001000" cont="1"/>
        <request index="3" response="010000000" foes="010000100" cont="0"/>
        <request index="4" response="010000011" foes="110000011" cont="0"/>
        <request index="5" response="001000010" foes="001000010" cont="1"/>
        <request index="6" response="000000000" foes="000100010" cont="0"/>
        <request index="7" response="000000000" foes="000011110" cont="0"/>
        <request index="8" response="000010001" foes="000010001" cont="1"/>
    </junction>
    <junction id="8" type="priority" x="2132.33" y="1306.21" incLanes="9_0" intLanes=":8_0_0" shape="2132.33,1306.21 2132.45,1303.02 2132.33,1306.21">
        <request index="0" response="0" foes="0" cont="0"/>
    </junction>

    <junction id=":1_16_0" type="internal" x="1020.40" y="1267.92" incLanes=":1_2_0 -3_0" intLanes=":1_5_0 :1_6_0 :1_7_0 :1_8_0 :1_9_0 :1_13_0 :1_14_0"/>
    <junction id=":1_17_0" type="internal" x="1020.72" y="1270.26" incLanes=":1_3_0 -3_0 -5_0 -9_0" intLanes=":1_4_0 :1_9_0 :1_14_0"/>
    <junction id=":1_18_0" type="internal" x="1024.48" y="1263.89" incLanes=":1_6_0 -5_0" intLanes=":1_1_0 :1_2_0 :1_9_0 :1_10_0 :1_11_0 :1_12_0 :1_13_0"/>
    <junction id=":1_19_0" type="internal" x="1027.57" y="1265.10" incLanes=":1_7_0 -3_0 -5_0 -7_0" intLanes=":1_2_0 :1_8_0 :1_13_0"/>
    <junction id=":1_20_0" type="internal" x="1020.93" y="1258.48" incLanes=":1_10_0 -7_0" intLanes=":1_0_0 :1_1_0 :1_5_0 :1_6_0 :1_13_0 :1_14_0 :1_15_0"/>
    <junction id=":1_21_0" type="internal" x="1019.71" y="1253.48" incLanes=":1_11_0 -5_0 -7_0 -9_0" intLanes=":1_1_0 :1_6_0 :1_12_0"/>
    <junction id=":1_22_0" type="internal" x="1016.14" y="1259.52" incLanes=":1_14_0 -9_0" intLanes=":1_1_0 :1_2_0 :1_3_0 :1_4_0 :1_5_0 :1_9_0 :1_10_0"/>
    <junction id=":1_23_0" type="internal" x="1012.82" y="1257.66" incLanes=":1_15_0 -3_0 -7_0 -9_0" intLanes=":1_0_0 :1_5_0 :1_10_0"/>
    <junction id=":6_9_0" type="internal" x="1040.42" y="2370.77" incLanes=":6_1_0 -18_0" intLanes=":6_4_0 :6_5_0 :6_6_0 :6_7_0"/>
    <junction id=":6_10_0" type="internal" x="1046.67" y="2367.62" incLanes=":6_2_0 -18_0 7_0" intLanes=":6_3_0 :6_7_0"/>
    <junction id=":6_11_0" type="internal" x="1039.50" y="2363.63" incLanes=":6_5_0 -18_0 -20_0" intLanes=":6_1_0 :6_6_0"/>
    <junction id=":6_12_0" type="internal" x="1031.82" y="2366.51" incLanes=":6_8_0 -20_0 7_0" intLanes=":6_0_0 :6_4_0"/>

    <connection from="-11" to="-3" fromLane="0" toLane="0" via=":2_1_0" dir="l" state="M"/>
    <connection from="-17" to="-5" fromLane="0" toLane="0" via=":4_1_0" dir="l" state="M"/>
    <connection from="-18" to="-7" fromLane="0" toLane="0" via=":6_6_0" tl="6" linkIndex="6" dir="r" state="O"/>
    <connection from="-18" to="20" fromLane="0" toLane="0" via=":6_7_0" tl="6" linkIndex="7" dir="R" state="O"/>
    <connection from="-18" to="18" fromLane="0" toLane="0" via=":6_8_0" tl="6" linkIndex="8" dir="t" state="o"/>
    <connection from="-20" to="18" fromLane="0" toLane="0" via=":6_0_0" tl="6" linkIndex="0" dir="L" state="O"/>
    <connection from="-20" to="-7" fromLane="0" toLane="0" via=":6_1_0" tl="6" linkIndex="1" dir="l" state="o"/>
    <connection from="-20" to="20" fromLane="0" toLane="0" via=":6_2_0" tl="6" linkIndex="2" dir="t" state="o"/>
    <connection from="-3" to="9" fromLane="0" toLane="0" via=":1_8_0" tl="1" linkIndex="8" dir="r" state="O"/>
    <connection from="-3" to="7" fromLane="0" toLane="0" via=":1_9_0" tl="1" linkIndex="9" dir="s" state="O"/>
    <connection from="-3" to="5" fromLane="0" toLane="0" via=":1_10_0" tl="1" linkIndex="10" dir="l" state="o"/>
    <connection from="-3" to="3" fromLane="0" toLane="0" via=":1_11_0" tl="1" linkIndex="11" dir="t" state="o"/>
    <connection from="-5" to="3" fromLane="0" toLane="0" via=":1_12_0" tl="1" linkIndex="12" dir="r" state="o"/>
    <connection from="-5" to="9" fromLane="0" toLane="0" via=":1_13_0" tl="1" linkIndex="13" dir="s" state="o"/>
    <connection from="-5" to="7" fromLane="0" toLane="0" via=":1_14_0" tl="1" linkIndex="14" dir="l" state="o"/>
    <connection from="-5" to="5" fromLane="0" toLane="0" via=":1_15_0" tl="1" linkIndex="15" dir="t" state="o"/>
    <connection from="-7" to="5" fromLane="0" toLane="0" via=":1_0_0" tl="1" linkIndex="0" dir="r" state="O"/>
    <connection from="-7" to="3" fromLane="0" toLane="0" via=":1_1_0" tl="1" linkIndex="1" dir="s" state="O"/>
    <connection from="-7" to="9" fromLane="0" toLane="0" via=":1_2_0" tl="1" linkIndex="2" dir="l" state="o"/>
    <connection from="-7" to="7" fromLane="0" toLane="0" via=":1_3_0" tl="1" linkIndex="3" dir="t" state="o"/>
    <connection from="-9" to="7" fromLane="0" toLane="0" via=":1_4_0" tl="1" linkIndex="4" dir="r" state="o"/>
    <connection from="-9" to="5" fromLane="0" toLane="0" via=":1_5_0" tl="1" linkIndex="5" dir="s" state="o"/>
    <connection from="-9" to="3" fromLane="0" toLane="0" via=":1_6_0" tl="1" linkIndex="6" dir="l" state="o"/>
    <connection from="-9" to="9" fromLane="0" toLane="0" via=":1_7_0" tl="1" linkIndex="7" dir="t" state="o"/>
    <connection from="11" to="-11" fromLane="0" toLane="0" via=":10_0_0" dir="t" state="M"/>
    <connection from="17" to="-18" fromLane="0" toLane="0" via=":16_1_0" dir="r" state="M"/>
    <connection from="18" to="-17" fromLane="0" toLane="0" via=":16_0_0" dir="l" state="M"/>
    <connection from="20" to="-20" fromLane="0" toLane="0" via=":19_0_0" dir="t" state="M"/>
    <connection from="3" to="11" fromLane="0" toLane="0" via=":2_0_0" dir="r" state="M"/>
    <connection from="5" to="17" fromLane="0" toLane="0" via=":4_0_0" dir="r" state="M"/>
    <connection from="7" to="20" fromLane="0" toLane="0" via=":6_3_0" tl="6" linkIndex="3" dir="r" state="o"/>
    <connection from="7" to="18" fromLane="0" toLane="0" via=":6_4_0" tl="6" linkIndex="4" dir="l" state="o"/>
    <connection from="7" to="-7" fromLane="0" toLane="0" via=":6_5_0" tl="6" linkIndex="5" dir="t" state="o"/>
    <connection from="9" to="-9" fromLane="0" toLane="0" via=":8_0_0" dir="t" state="M"/>

    <connection from=":1_0" to="5" fromLane="0" toLane="0" dir="r" state="M"/>
    <connection from=":1_1" to="3" fromLane="0" toLane="0" dir="s" state="M"/>
    <connection from=":1_2" to="9" fromLane="0" toLane="0" via=":1_16_0" dir="l" state="m"/>
    <connection from=":1_16" to="9" fromLane="0" toLane="0" dir="l" state="M"/>
    <connection from=":1_3" to="7" fromLane="0" toLane="0" via=":1_17_0" dir="t" state="m"/>
    <connection from=":1_17" to="7" fromLane="0" toLane="0" dir="t" state="M"/>
    <connection from=":1_4" to="7" fromLane="0" toLane="0" dir="r" state="M"/>
    <connection from=":1_5" to="5" fromLane="0" toLane="0" dir="s" state="M"/>
    <connection from=":1_6" to="3" fromLane="0" toLane="0" via=":1_18_0" dir="l" state="m"/>
    <connection from=":1_18" to="3" fromLane="0" toLane="0" dir="l" state="M"/>
    <connection from=":1_7" to="9" fromLane="0" toLane="0" via=":1_19_0" dir="t" state="m"/>
    <connection from=":1_19" to="9" fromLane="0" toLane="0" dir="t" state="M"/>
    <connection from=":1_8" to="9" fromLane="0" toLane="0" dir="r" state="M"/>
    <connection from=":1_9" to="7" fromLane="0" toLane="0" dir="s" state="M"/>
    <connection from=":1_10" to="5" fromLane="0" toLane="0" via=":1_20_0" dir="l" state="m"/>
    <connection from=":1_20" to="5" fromLane="0" toLane="0" dir="l" state="M"/>
    <connection from=":1_11" to="3" fromLane="0" toLane="0" via=":1_21_0" dir="t" state="m"/>
    <connection from=":1_21" to="3" fromLane="0" toLane="0" dir="t" state="M"/>
    <connection from=":1_12" to="3" fromLane="0" toLane="0" dir="r" state="M"/>
    <connection from=":1_13" to="9" fromLane="0" toLane="0" dir="s" state="M"/>
    <connection from=":1_14" to="7" fromLane="0" toLane="0" via=":1_22_0" dir="l" state="m"/>
    <connection from=":1_22" to="7" fromLane="0" toLane="0" dir="l" state="M"/>
    <connection from=":1_15" to="5" fromLane="0" toLane="0" via=":1_23_0" dir="t" state="m"/>
    <connection from=":1_23" to="5" fromLane="0" toLane="0" dir="t" state="M"/>
    <connection from=":10_0" to="-11" fromLane="0" toLane="0" dir="t" state="M"/>
    <connection from=":16_0" to="-17" fromLane="0" toLane="0" dir="l" state="M"/>
    <connection from=":16_1" to="-18" fromLane="0" toLane="0" dir="r" state="M"/>
    <connection from=":19_0" to="-20" fromLane="0" toLane="0" dir="t" state="M"/>
    <connection from=":2_0" to="11" fromLane="0" toLane="0" dir="r" state="M"/>
    <connection from=":2_1" to="-3" fromLane="0" toLane="0" dir="l" state="M"/>
    <connection from=":4_0" to="17" fromLane="0" toLane="0" dir="r" state="M"/>
    <connection from=":4_1" to="-5" fromLane="0" toLane="0" dir="l" state="M"/>
    <connection from=":6_0" to="18" fromLane="0" toLane="0" dir="L" state="M"/>
    <connection from=":6_1" to="-7" fromLane="0" toLane="0" via=":6_9_0" dir="l" state="m"/>
    <connection from=":6_9" to="-7" fromLane="0" toLane="0" dir="l" state="M"/>
    <connection from=":6_2" to="20" fromLane="0" toLane="0" via=":6_10_0" dir="t" state="m"/>
    <connection from=":6_10" to="20" fromLane="0" toLane="0" dir="t" state="M"/>
    <connection from=":6_3" to="20" fromLane="0" toLane="0" dir="r" state="M"/>
    <connection from=":6_4" to="18" fromLane="0" toLane="0" dir="l" state="M"/>
    <connection from=":6_5" to="-7" fromLane="0" toLane="0" via=":6_11_0" dir="t" state="m"/>
    <connection from=":6_11" to="-7" fromLane="0" toLane="0" dir="t" state="M"/>
    <connection from=":6_6" to="-7" fromLane="0" toLane="0" dir="r" state="M"/>
    <connection from=":6_7" to="20" fromLane="0" toLane="0" dir="R" state="M"/>
    <connection from=":6_8" to="18" fromLane="0" toLane="0" via=":6_12_0" dir="t" state="m"/>
    <connection from=":6_12" to="18" fromLane="0" toLane="0" dir="t" state="M"/>
    <connection from=":8_0" to="-9" fromLane="0" toLane="0" dir="t" state="M"/>

</net>
