<?xml version="1.0" encoding="UTF-8"?>

<!-- generated on 2025-04-13 03:47:21 by Eclipse SUMO netgenerate Version 1.22.0
<netgenerateConfiguration xmlns:xsi="http://www.w3.org/2001/XMLSchema-instance" xsi:noNamespaceSchemaLocation="http://sumo.dlr.de/xsd/netgenerateConfiguration.xsd">

    <random_network>
        <rand value="true"/>
        <rand.iterations value="9"/>
        <rand.max-distance value="1039.3834948387205"/>
        <rand.min-distance value="150.0"/>
        <rand.min-angle value="54.14842400862915"/>
        <rand.neighbor-dist1 value="3.0"/>
        <rand.neighbor-dist2 value="1.0"/>
        <rand.neighbor-dist3 value="0.0"/>
        <rand.neighbor-dist4 value="5.0"/>
        <rand.neighbor-dist5 value="0.0"/>
        <rand.neighbor-dist6 value="0.0"/>
    </random_network>

    <output>
        <output-file value="configs/rand-configs/rand1.net.xml"/>
    </output>

    <tls_building>
        <tls.guess value="true"/>
        <tls.guess.threshold value="0"/>
    </tls_building>

</netgenerateConfiguration>
-->

<net version="1.20" junctionCornerDetail="5" limitTurnSpeed="5.50" xmlns:xsi="http://www.w3.org/2001/XMLSchema-instance" xsi:noNamespaceSchemaLocation="http://sumo.dlr.de/xsd/net_file.xsd">

    <location netOffset="539.23,916.40" convBoundary="0.00,0.00,2077.63,1727.34" origBoundary="-539.23,-916.40,1538.39,810.94" projParameter="!"/>

    <edge id=":1_0" function="internal">
        <lane id=":1_0_0" index="0" speed="5.98" length="9.08" shape="537.76,924.70 537.36,922.13 536.23,920.55 534.38,919.97 531.81,920.38"/>
    </edge>
    <edge id=":1_1" function="internal">
        <lane id=":1_1_0" index="0" speed="13.89" length="14.86" shape="537.76,924.70 537.63,920.97 537.31,917.28 536.79,913.62 536.04,909.97"/>
    </edge>
    <edge id=":1_2" function="internal">
        <lane id=":1_2_0" index="0" speed="8.09" length="4.36" shape="537.76,924.70 538.26,920.36"/>
    </edge>
    <edge id=":1_3" function="internal">
        <lane id=":1_3_0" index="0" speed="3.65" length="1.44" shape="537.76,924.70 538.54,923.48"/>
    </edge>
    <edge id=":1_16" function="internal">
        <lane id=":1_16_0" index="0" speed="8.09" length="10.76" shape="538.26,920.36 539.91,917.31 542.71,915.55 546.67,915.08"/>
    </edge>
    <edge id=":1_17" function="internal">
        <lane id=":1_17_0" index="0" speed="3.65" length="3.23" shape="538.54,923.48 539.34,923.07 540.14,923.46 540.96,924.65"/>
    </edge>
    <edge id=":1_4" function="internal">
        <lane id=":1_4_0" index="0" speed="6.62" length="9.76" shape="546.54,918.28 544.06,918.59 542.31,919.76 541.27,921.78 540.96,924.65"/>
    </edge>
    <edge id=":1_5" function="internal">
        <lane id=":1_5_0" index="0" speed="13.89" length="14.95" shape="546.54,918.28 542.80,918.32 539.09,918.70 535.42,919.40 531.81,920.38"/>
    </edge>
    <edge id=":1_6" function="internal">
        <lane id=":1_6_0" index="0" speed="9.03" length="3.93" shape="546.54,918.28 542.67,917.64"/>
    </edge>
    <edge id=":1_7" function="internal">
        <lane id=":1_7_0" index="0" speed="3.65" length="1.44" shape="546.54,918.28 545.37,917.43"/>
    </edge>
    <edge id=":1_18" function="internal">
        <lane id=":1_18_0" index="0" speed="9.03" length="10.59" shape="542.67,917.64 539.63,916.04 537.42,913.48 536.04,909.97"/>
    </edge>
    <edge id=":1_19" function="internal">
        <lane id=":1_19_0" index="0" speed="3.65" length="3.23" shape="545.37,917.43 545.01,916.62 545.44,915.83 546.67,915.08"/>
    </edge>
    <edge id=":1_8" function="internal">
        <lane id=":1_8_0" index="0" speed="7.70" length="10.32" shape="539.16,909.22 540.13,911.70 541.71,913.50 543.89,914.63 546.67,915.08"/>
    </edge>
    <edge id=":1_9" function="internal">
        <lane id=":1_9_0" index="0" speed="13.89" length="15.56" shape="539.16,909.22 539.92,912.98 540.47,916.88 540.81,920.81 540.96,924.65"/>
    </edge>
    <edge id=":1_10" function="internal">
        <lane id=":1_10_0" index="0" speed="8.41" length="4.08" shape="539.16,909.22 539.44,913.02 539.35,913.28"/>
    </edge>
    <edge id=":1_11" function="internal">
        <lane id=":1_11_0" index="0" speed="3.65" length="1.44" shape="539.16,909.22 538.66,910.58"/>
    </edge>
    <edge id=":1_20" function="internal">
        <lane id=":1_20_0" index="0" speed="8.41" length="10.92" shape="539.35,913.28 538.31,916.14 535.77,918.60 531.81,920.38"/>
    </edge>
    <edge id=":1_21" function="internal">
        <lane id=":1_21_0" index="0" speed="3.65" length="3.23" shape="538.66,910.58 537.97,911.15 537.10,910.95 536.04,909.97"/>
    </edge>
    <edge id=":1_12" function="internal">
        <lane id=":1_12_0" index="0" speed="7.00" length="10.09" shape="530.86,917.32 533.61,916.11 535.39,914.48 536.20,912.43 536.04,909.97"/>
    </edge>
    <edge id=":1_13" function="internal">
        <lane id=":1_13_0" index="0" speed="13.89" length="16.03" shape="530.86,917.32 534.64,916.32 538.68,915.57 542.76,915.14 546.67,915.08"/>
    </edge>
    <edge id=":1_14" function="internal">
        <lane id=":1_14_0" index="0" speed="7.59" length="4.78" shape="530.86,917.32 535.22,916.62 535.56,916.73"/>
    </edge>
    <edge id=":1_15" function="internal">
        <lane id=":1_15_0" index="0" speed="3.65" length="1.44" shape="530.86,917.32 532.24,917.73"/>
    </edge>
    <edge id=":1_22" function="internal">
        <lane id=":1_22_0" index="0" speed="7.59" length="10.63" shape="535.56,916.73 538.36,917.61 540.27,920.29 540.96,924.65"/>
    </edge>
    <edge id=":1_23" function="internal">
        <lane id=":1_23_0" index="0" speed="3.65" length="3.23" shape="532.24,917.73 532.86,918.38 532.72,919.26 531.81,920.38"/>
    </edge>
    <edge id=":10_0" function="internal">
        <lane id=":10_0_0" index="0" speed="3.65" length="4.67" shape="0.47,1085.26 -0.91,1084.85 -1.53,1084.20 -1.38,1083.32 -0.47,1082.20"/>
    </edge>
    <edge id=":12_0" function="internal">
        <lane id=":12_0_0" index="0" speed="3.65" length="4.67" shape="677.75,140.91 678.57,142.10 678.64,142.99 677.98,143.59 676.57,143.89"/>
    </edge>
    <edge id=":15_0" function="internal">
        <lane id=":15_0_0" index="0" speed="3.65" length="4.67" shape="2078.08,1162.62 2079.00,1163.73 2079.16,1164.61 2078.55,1165.26 2077.17,1165.68"/>
    </edge>
    <edge id=":19_0" function="internal">
        <lane id=":19_0_0" index="0" speed="3.65" length="4.67" shape="2022.29,372.98 2023.72,372.81 2024.55,373.15 2024.76,374.02 2024.37,375.41"/>
    </edge>
    <edge id=":2_0" function="internal">
        <lane id=":2_0_0" index="0" speed="6.27" length="12.23" shape="319.07,6.38 318.66,2.65 319.60,0.48 321.88,-0.14 325.51,0.79"/>
    </edge>
    <edge id=":2_1" function="internal">
        <lane id=":2_1_0" index="0" speed="4.01" length="4.08" shape="324.33,3.77 323.12,3.46 322.36,3.66 322.05,4.39 322.18,5.63"/>
    </edge>
    <edge id=":21_0" function="internal">
        <lane id=":21_0_0" index="0" speed="3.65" length="4.67" shape="1405.80,1578.97 1405.10,1580.23 1404.34,1580.70 1403.51,1580.37 1402.61,1579.24"/>
    </edge>
    <edge id=":6_0" function="internal">
        <lane id=":6_0_0" index="0" speed="3.65" length="4.67" shape="553.57,1727.32 552.79,1728.53 552.00,1728.94 551.19,1728.55 550.37,1727.37"/>
    </edge>
    <edge id=":8_0" function="internal">
        <lane id=":8_0_0" index="0" speed="7.32" length="10.61" shape="1350.48,956.00 1349.87,952.82 1348.67,950.52 1346.86,949.09 1344.46,948.55"/>
    </edge>
    <edge id=":8_1" function="internal">
        <lane id=":8_1_0" index="0" speed="12.42" length="7.01" shape="1350.48,956.00 1350.64,951.42 1351.34,949.10"/>
    </edge>
    <edge id=":8_2" function="internal">
        <lane id=":8_2_0" index="0" speed="7.69" length="6.01" shape="1350.48,956.00 1350.81,951.41 1351.60,950.25"/>
    </edge>
    <edge id=":8_3" function="internal">
        <lane id=":8_3_0" index="0" speed="3.65" length="1.44" shape="1350.48,956.00 1351.17,954.74"/>
    </edge>
    <edge id=":8_16" function="internal">
        <lane id=":8_16_0" index="0" speed="12.42" length="11.70" shape="1351.34,949.10 1351.92,947.16 1354.31,943.21 1357.83,939.58"/>
    </edge>
    <edge id=":8_17" function="internal">
        <lane id=":8_17_0" index="0" speed="7.69" length="10.73" shape="1351.60,950.25 1352.72,948.63 1356.20,947.66 1361.27,948.50"/>
    </edge>
    <edge id=":8_18" function="internal">
        <lane id=":8_18_0" index="0" speed="3.65" length="3.23" shape="1351.17,954.74 1351.94,954.28 1352.77,954.61 1353.67,955.74"/>
    </edge>
    <edge id=":8_4" function="internal">
        <lane id=":8_4_0" index="0" speed="6.09" length="10.00" shape="1360.36,951.57 1357.23,951.02 1355.07,951.53 1353.89,953.11 1353.67,955.74"/>
    </edge>
    <edge id=":8_5" function="internal">
        <lane id=":8_5_0" index="0" speed="13.89" length="16.22" shape="1360.36,951.57 1356.55,950.52 1352.48,949.59 1348.38,948.90 1344.46,948.55"/>
    </edge>
    <edge id=":8_6" function="internal">
        <lane id=":8_6_0" index="0" speed="7.39" length="4.53" shape="1360.36,951.57 1356.23,949.73"/>
    </edge>
    <edge id=":8_7" function="internal">
        <lane id=":8_7_0" index="0" speed="3.65" length="1.44" shape="1360.36,951.57 1359.44,950.46"/>
    </edge>
    <edge id=":8_19" function="internal">
        <lane id=":8_19_0" index="0" speed="7.39" length="12.66" shape="1356.23,949.73 1355.59,949.44 1353.58,946.74 1354.33,943.45 1357.83,939.58"/>
    </edge>
    <edge id=":8_20" function="internal">
        <lane id=":8_20_0" index="0" speed="3.65" length="3.23" shape="1359.44,950.46 1359.28,949.58 1359.89,948.93 1361.27,948.50"/>
    </edge>
    <edge id=":8_8" function="internal">
        <lane id=":8_8_0" index="0" speed="5.62" length="9.30" shape="1359.90,942.01 1358.01,944.11 1357.61,945.89 1358.69,947.35 1361.27,948.50"/>
    </edge>
    <edge id=":8_9" function="internal">
        <lane id=":8_9_0" index="0" speed="11.40" length="15.67" shape="1359.90,942.01 1356.93,945.08 1354.90,948.38 1353.81,951.94 1353.67,955.74"/>
    </edge>
    <edge id=":8_10" function="internal">
        <lane id=":8_10_0" index="0" speed="13.89" length="17.06" shape="1359.90,942.01 1356.59,944.43 1352.63,946.57 1348.44,948.06 1344.46,948.55"/>
    </edge>
    <edge id=":8_11" function="internal">
        <lane id=":8_11_0" index="0" speed="3.65" length="1.34" shape="1359.90,942.01 1358.57,942.17"/>
    </edge>
    <edge id=":8_21" function="internal">
        <lane id=":8_21_0" index="0" speed="3.65" length="3.33" shape="1358.57,942.17 1358.47,942.18 1357.65,941.83 1357.43,940.97 1357.83,939.58"/>
    </edge>
    <edge id=":8_12" function="internal">
        <lane id=":8_12_0" index="0" speed="13.15" length="14.78" shape="1344.58,945.35 1348.22,944.99 1351.65,943.75 1354.86,941.88 1357.83,939.58"/>
    </edge>
    <edge id=":8_13" function="internal">
        <lane id=":8_13_0" index="0" speed="13.89" length="17.03" shape="1344.58,945.35 1348.62,945.72 1353.00,946.46 1357.35,947.43 1361.27,948.50"/>
    </edge>
    <edge id=":8_14" function="internal">
        <lane id=":8_14_0" index="0" speed="8.68" length="4.11" shape="1344.58,945.35 1348.24,946.12 1348.53,946.33"/>
    </edge>
    <edge id=":8_15" function="internal">
        <lane id=":8_15_0" index="0" speed="3.65" length="1.44" shape="1344.58,945.35 1345.75,946.20"/>
    </edge>
    <edge id=":8_22" function="internal">
        <lane id=":8_22_0" index="0" speed="8.68" length="11.21" shape="1348.53,946.33 1350.97,948.10 1352.78,951.31 1353.67,955.74"/>
    </edge>
    <edge id=":8_23" function="internal">
        <lane id=":8_23_0" index="0" speed="3.65" length="3.23" shape="1345.75,946.20 1346.12,947.01 1345.69,947.79 1344.46,948.55"/>
    </edge>

    <edge id="-11" from="10" to="1" priority="-1">
        <lane id="-11_0" index="0" speed="13.89" length="556.33" shape="-0.47,1082.20 530.86,917.32"/>
    </edge>
    <edge id="-13" from="12" to="2" priority="-1">
        <lane id="-13_0" index="0" speed="13.89" length="379.08" shape="676.57,143.89 324.33,3.77"/>
    </edge>
    <edge id="-16" from="15" to="8" priority="-1">
        <lane id="-16_0" index="0" speed="13.89" length="748.11" shape="2077.17,1165.68 1360.36,951.57"/>
    </edge>
    <edge id="-20" from="19" to="8" priority="-1">
        <lane id="-20_0" index="0" speed="13.89" length="873.24" shape="2024.37,375.41 1359.90,942.01"/>
    </edge>
    <edge id="-22" from="21" to="8" priority="-1">
        <lane id="-22_0" index="0" speed="13.89" length="625.41" shape="1402.61,1579.24 1350.48,956.00"/>
    </edge>
    <edge id="-3" from="2" to="1" priority="-1">
        <lane id="-3_0" index="0" speed="13.89" length="929.28" shape="322.18,5.63 539.16,909.22"/>
    </edge>
    <edge id="-7" from="6" to="1" priority="-1">
        <lane id="-7_0" index="0" speed="13.89" length="802.77" shape="550.37,1727.37 537.76,924.70"/>
    </edge>
    <edge id="-9" from="8" to="1" priority="-1">
        <lane id="-9_0" index="0" speed="13.89" length="798.49" shape="1344.46,948.55 546.54,918.28"/>
    </edge>
    <edge id="11" from="1" to="10" priority="-1">
        <lane id="11_0" index="0" speed="13.89" length="556.33" shape="531.81,920.38 0.47,1085.26"/>
    </edge>
    <edge id="13" from="2" to="12" priority="-1">
        <lane id="13_0" index="0" speed="13.89" length="379.08" shape="325.51,0.79 677.75,140.91"/>
    </edge>
    <edge id="16" from="8" to="15" priority="-1">
        <lane id="16_0" index="0" speed="13.89" length="748.11" shape="1361.27,948.50 2078.08,1162.62"/>
    </edge>
    <edge id="20" from="8" to="19" priority="-1">
        <lane id="20_0" index="0" speed="13.89" length="873.24" shape="1357.83,939.58 2022.29,372.98"/>
    </edge>
    <edge id="22" from="8" to="21" priority="-1">
        <lane id="22_0" index="0" speed="13.89" length="625.41" shape="1353.67,955.74 1405.80,1578.97"/>
    </edge>
    <edge id="3" from="1" to="2" priority="-1">
        <lane id="3_0" index="0" speed="13.89" length="929.28" shape="536.04,909.97 319.07,6.38"/>
    </edge>
    <edge id="7" from="1" to="6" priority="-1">
        <lane id="7_0" index="0" speed="13.89" length="802.77" shape="540.96,924.65 553.57,1727.32"/>
    </edge>
    <edge id="9" from="1" to="8" priority="-1">
        <lane id="9_0" index="0" speed="13.89" length="798.49" shape="546.67,915.08 1344.58,945.35"/>
    </edge>

    <tlLogic id="1" type="static" programID="0" offset="0">
        <phase duration="42" state="GGggrrrrGGggrrrr"/>
        <phase duration="3"  state="yyyyrrrryyyyrrrr"/>
        <phase duration="42" state="rrrrGGggrrrrGGgg"/>
        <phase duration="3"  state="rrrryyyyrrrryyyy"/>
    </tlLogic>
    <tlLogic id="8" type="static" programID="0" offset="0">
        <phase duration="42" state="rrrrGGggrrrrGGgg"/>
        <phase duration="3"  state="rrrryyyyrrrryyyy"/>
        <phase duration="42" state="ggggrrrrGGGgrrrr"/>
        <phase duration="3"  state="yyyyrrrryyyyrrrr"/>
    </tlLogic>

    <junction id="1" type="traffic_light" x="539.23" y="916.40" incLanes="-7_0 -9_0 -3_0 -11_0" intLanes=":1_0_0 :1_1_0 :1_16_0 :1_17_0 :1_4_0 :1_5_0 :1_18_0 :1_19_0 :1_8_0 :1_9_0 :1_20_0 :1_21_0 :1_12_0 :1_13_0 :1_22_0 :1_23_0" shape="536.16,924.72 542.56,924.62 542.96,921.92 543.50,920.99 544.27,920.34 545.26,919.97 546.48,919.88 546.73,913.48 543.86,912.88 542.75,912.23 541.85,911.34 541.17,910.21 540.71,908.85 534.49,910.34 534.45,912.68 533.93,913.65 533.08,914.49 531.90,915.21 530.38,915.79 532.28,921.91 534.41,921.69 535.16,922.02 535.70,922.63 536.04,923.53">
        <request index="0"  response="0000000000000000" foes="1000010000100000" cont="0"/>
        <request index="1"  response="0100000001000000" foes="0111110001100000" cont="0"/>
        <request index="2"  response="0100001101000000" foes="0110011111100000" cont="1"/>
        <request index="3"  response="0100001000010000" foes="0100001000010000" cont="1"/>
        <request index="4"  response="0000001000000000" foes="0100001000001000" cont="0"/>
        <request index="5"  response="0000011000000111" foes="1100011000000111" cont="0"/>
        <request index="6"  response="0011011000000110" foes="0111111000000110" cont="1"/>
        <request index="7"  response="0010000100000100" foes="0010000100000100" cont="1"/>
        <request index="8"  response="0000000000000000" foes="0010000010000100" cont="0"/>
        <request index="9"  response="0100000001000000" foes="0110000001111100" cont="0"/>
        <request index="10" response="0100000001000111" foes="1110000001100111" cont="1"/>
        <request index="11" response="0001000001000010" foes="0001000001000010" cont="1"/>
        <request index="12" response="0000000000000010" foes="0000100001000010" cont="0"/>
        <request index="13" response="0000011100000110" foes="0000011111000110" cont="0"/>
        <request index="14" response="0000011001110110" foes="0000011001111110" cont="1"/>
        <request index="15" response="0000010000100001" foes="0000010000100001" cont="1"/>
    </junction>
    <junction id="10" type="priority" x="0.00" y="1083.73" incLanes="11_0" intLanes=":10_0_0" shape="0.00,1083.73 0.95,1086.79 0.00,1083.73">
        <request index="0" response="0" foes="0" cont="0"/>
    </junction>
    <junction id="12" type="priority" x="677.16" y="142.40" incLanes="13_0" intLanes=":12_0_0" shape="677.16,142.40 678.34,139.43 677.16,142.40">
        <request index="0" response="0" foes="0" cont="0"/>
    </junction>
    <junction id="15" type="priority" x="2077.63" y="1164.15" incLanes="16_0" intLanes=":15_0_0" shape="2077.63,1164.15 2078.54,1161.09 2077.63,1164.15">
        <request index="0" response="0" foes="0" cont="0"/>
    </junction>
    <junction id="19" type="priority" x="2023.33" y="374.19" incLanes="20_0" intLanes=":19_0_0" shape="2023.33,374.19 2021.25,371.76 2023.33,374.19">
        <request index="0" response="0" foes="0" cont="0"/>
    </junction>
    <junction id="2" type="priority" x="319.18" y="0.00" incLanes="3_0 -13_0" intLanes=":2_0_0 :2_1_0" shape="317.51,6.75 323.74,5.25 326.10,-0.69 322.68,-1.75 320.05,-1.89 318.22,-1.11 317.19,0.59 316.95,3.21">
        <request index="0" response="00" foes="00" cont="0"/>
        <request index="1" response="00" foes="00" cont="0"/>
    </junction>
    <junction id="21" type="priority" x="1404.20" y="1579.11" incLanes="22_0" intLanes=":21_0_0" shape="1404.20,1579.11 1407.39,1578.84 1404.20,1579.11">
        <request index="0" response="0" foes="0" cont="0"/>
    </junction>
    <junction id="6" type="priority" x="551.97" y="1727.34" incLanes="7_0" intLanes=":6_0_0" shape="551.97,1727.34 555.17,1727.29 551.97,1727.34">
        <request index="0" response="0" foes="0" cont="0"/>
    </junction>
    <junction id="8" type="traffic_light" x="1351.35" y="947.21" incLanes="-22_0 -16_0 -20_0 9_0" intLanes=":8_0_0 :8_16_0 :8_17_0 :8_18_0 :8_4_0 :8_5_0 :8_19_0 :8_20_0 :8_8_0 :8_9_0 :8_10_0 :8_21_0 :8_12_0 :8_13_0 :8_22_0 :8_23_0" shape="1348.88,956.14 1355.26,955.60 1355.63,953.55 1356.25,952.99 1357.17,952.72 1358.39,952.76 1359.90,953.10 1361.73,946.97 1359.94,946.05 1359.62,945.46 1359.68,944.80 1360.12,944.06 1360.94,943.23 1356.79,938.36 1354.60,940.28 1352.87,941.73 1351.31,942.77 1349.62,943.43 1347.49,943.74 1344.64,943.75 1344.40,950.15 1346.67,950.88 1347.52,951.72 1348.17,952.88 1348.62,954.35">
        <request index="0"  response="0000010000100000" foes="1000010000100000" cont="0"/>
        <request index="1"  response="0111010001100000" foes="0111110001100000" cont="1"/>
        <request index="2"  response="0110001101100000" foes="0110001111100000" cont="1"/>
        <request index="3"  response="0100001000010000" foes="0100001000010000" cont="1"/>
        <request index="4"  response="0000000000000000" foes="0100001000001000" cont="0"/>
        <request index="5"  response="0000000000000110" foes="1100011000000111" cont="0"/>
        <request index="6"  response="0011000000000110" foes="0011111000000110" cont="1"/>
        <request index="7"  response="0010000100000100" foes="0010000100000100" cont="1"/>
        <request index="8"  response="0010000000000000" foes="0010000010000100" cont="0"/>
        <request index="9"  response="0110000001110000" foes="0110000001111100" cont="0"/>
        <request index="10" response="0110000001100000" foes="1110000001100011" cont="0"/>
        <request index="11" response="0001000001000010" foes="0001000001000010" cont="1"/>
        <request index="12" response="0000000000000010" foes="0000100001000010" cont="0"/>
        <request index="13" response="0000000000000110" foes="0000011111000110" cont="0"/>
        <request index="14" response="0000000000110110" foes="0000011000111110" cont="1"/>
        <request index="15" response="0000010000100001" foes="0000010000100001" cont="1"/>
    </junction>

    <junction id=":1_16_0" type="internal" x="538.26" y="920.36" incLanes=":1_2_0 -3_0" intLanes=":1_5_0 :1_6_0 :1_7_0 :1_8_0 :1_9_0 :1_13_0 :1_14_0"/>
    <junction id=":1_17_0" type="internal" x="538.54" y="923.48" incLanes=":1_3_0 -11_0 -3_0 -9_0" intLanes=":1_4_0 :1_9_0 :1_14_0"/>
    <junction id=":1_18_0" type="internal" x="542.67" y="917.64" incLanes=":1_6_0 -11_0" intLanes=":1_1_0 :1_2_0 :1_9_0 :1_10_0 :1_11_0 :1_12_0 :1_13_0"/>
    <junction id=":1_19_0" type="internal" x="545.37" y="917.43" incLanes=":1_7_0 -11_0 -3_0 -7_0" intLanes=":1_2_0 :1_8_0 :1_13_0"/>
    <junction id=":1_20_0" type="internal" x="539.35" y="913.28" incLanes=":1_10_0 -7_0" intLanes=":1_0_0 :1_1_0 :1_5_0 :1_6_0 :1_13_0 :1_14_0 :1_15_0"/>
    <junction id=":1_21_0" type="internal" x="538.66" y="910.58" incLanes=":1_11_0 -11_0 -7_0 -9_0" intLanes=":1_1_0 :1_6_0 :1_12_0"/>
    <junction id=":1_22_0" type="internal" x="535.56" y="916.73" incLanes=":1_14_0 -9_0" intLanes=":1_1_0 :1_2_0 :1_3_0 :1_4_0 :1_5_0 :1_9_0 :1_10_0"/>
    <junction id=":1_23_0" type="internal" x="532.24" y="917.73" incLanes=":1_15_0 -3_0 -7_0 -9_0" intLanes=":1_0_0 :1_5_0 :1_10_0"/>
    <junction id=":8_16_0" type="internal" x="1351.34" y="949.10" incLanes=":8_1_0 -20_0" intLanes=":8_5_0 :8_6_0 :8_10_0 :8_11_0 :8_12_0 :8_13_0 :8_14_0"/>
    <junction id=":8_17_0" type="internal" x="1351.60" y="950.25" incLanes=":8_2_0 -20_0" intLanes=":8_5_0 :8_6_0 :8_7_0 :8_8_0 :8_9_0 :8_13_0 :8_14_0"/>
    <junction id=":8_18_0" type="internal" x="1351.17" y="954.74" incLanes=":8_3_0 -16_0 -20_0 9_0" intLanes=":8_4_0 :8_9_0 :8_14_0"/>
    <junction id=":8_19_0" type="internal" x="1356.23" y="949.73" incLanes=":8_6_0 9_0" intLanes=":8_1_0 :8_2_0 :8_9_0 :8_10_0 :8_11_0 :8_12_0 :8_13_0"/>
    <junction id=":8_20_0" type="internal" x="1359.44" y="950.46" incLanes=":8_7_0 -20_0 -22_0 9_0" intLanes=":8_2_0 :8_8_0 :8_13_0"/>
    <junction id=":8_21_0" type="internal" x="1358.57" y="942.17" incLanes=":8_11_0 -16_0 -22_0 9_0" intLanes=":8_1_0 :8_6_0 :8_12_0"/>
    <junction id=":8_22_0" type="internal" x="1348.53" y="946.33" incLanes=":8_14_0 -16_0" intLanes=":8_1_0 :8_2_0 :8_3_0 :8_4_0 :8_5_0 :8_9_0 :8_10_0"/>
    <junction id=":8_23_0" type="internal" x="1345.75" y="946.20" incLanes=":8_15_0 -16_0 -20_0 -22_0" intLanes=":8_0_0 :8_5_0 :8_10_0"/>

    <connection from="-11" to="3" fromLane="0" toLane="0" via=":1_12_0" tl="1" linkIndex="12" dir="r" state="o"/>
    <connection from="-11" to="9" fromLane="0" toLane="0" via=":1_13_0" tl="1" linkIndex="13" dir="s" state="o"/>
    <connection from="-11" to="7" fromLane="0" toLane="0" via=":1_14_0" tl="1" linkIndex="14" dir="l" state="o"/>
    <connection from="-11" to="11" fromLane="0" toLane="0" via=":1_15_0" tl="1" linkIndex="15" dir="t" state="o"/>
    <connection from="-13" to="-3" fromLane="0" toLane="0" via=":2_1_0" dir="r" state="M"/>
    <connection from="-16" to="22" fromLane="0" toLane="0" via=":8_4_0" tl="8" linkIndex="4" dir="r" state="O"/>
    <connection from="-16" to="-9" fromLane="0" toLane="0" via=":8_5_0" tl="8" linkIndex="5" dir="s" state="O"/>
    <connection from="-16" to="20" fromLane="0" toLane="0" via=":8_6_0" tl="8" linkIndex="6" dir="l" state="o"/>
    <connection from="-16" to="16" fromLane="0" toLane="0" via=":8_7_0" tl="8" linkIndex="7" dir="t" state="o"/>
    <connection from="-20" to="16" fromLane="0" toLane="0" via=":8_8_0" tl="8" linkIndex="8" dir="r" state="o"/>
    <connection from="-20" to="22" fromLane="0" toLane="0" via=":8_9_0" tl="8" linkIndex="9" dir="R" state="o"/>
    <connection from="-20" to="-9" fromLane="0" toLane="0" via=":8_10_0" tl="8" linkIndex="10" dir="s" state="o"/>
    <connection from="-20" to="20" fromLane="0" toLane="0" via=":8_11_0" tl="8" linkIndex="11" dir="t" state="o"/>
    <connection from="-22" to="-9" fromLane="0" toLane="0" via=":8_0_0" tl="8" linkIndex="0" dir="r" state="o"/>
    <connection from="-22" to="20" fromLane="0" toLane="0" via=":8_1_0" tl="8" linkIndex="1" dir="L" state="o"/>
    <connection from="-22" to="16" fromLane="0" toLane="0" via=":8_2_0" tl="8" linkIndex="2" dir="l" state="o"/>
    <connection from="-22" to="22" fromLane="0" toLane="0" via=":8_3_0" tl="8" linkIndex="3" dir="t" state="o"/>
    <connection from="-3" to="9" fromLane="0" toLane="0" via=":1_8_0" tl="1" linkIndex="8" dir="r" state="O"/>
    <connection from="-3" to="7" fromLane="0" toLane="0" via=":1_9_0" tl="1" linkIndex="9" dir="s" state="O"/>
    <connection from="-3" to="11" fromLane="0" toLane="0" via=":1_10_0" tl="1" linkIndex="10" dir="l" state="o"/>
    <connection from="-3" to="3" fromLane="0" toLane="0" via=":1_11_0" tl="1" linkIndex="11" dir="t" state="o"/>
    <connection from="-7" to="11" fromLane="0" toLane="0" via=":1_0_0" tl="1" linkIndex="0" dir="r" state="O"/>
    <connection from="-7" to="3" fromLane="0" toLane="0" via=":1_1_0" tl="1" linkIndex="1" dir="s" state="O"/>
    <connection from="-7" to="9" fromLane="0" toLane="0" via=":1_2_0" tl="1" linkIndex="2" dir="l" state="o"/>
    <connection from="-7" to="7" fromLane="0" toLane="0" via=":1_3_0" tl="1" linkIndex="3" dir="t" state="o"/>
    <connection from="-9" to="7" fromLane="0" toLane="0" via=":1_4_0" tl="1" linkIndex="4" dir="r" state="o"/>
    <connection from="-9" to="11" fromLane="0" toLane="0" via=":1_5_0" tl="1" linkIndex="5" dir="s" state="o"/>
    <connection from="-9" to="3" fromLane="0" toLane="0" via=":1_6_0" tl="1" linkIndex="6" dir="l" state="o"/>
    <connection from="-9" to="9" fromLane="0" toLane="0" via=":1_7_0" tl="1" linkIndex="7" dir="t" state="o"/>
    <connection from="11" to="-11" fromLane="0" toLane="0" via=":10_0_0" dir="t" state="M"/>
    <connection from="13" to="-13" fromLane="0" toLane="0" via=":12_0_0" dir="t" state="M"/>
    <connection from="16" to="-16" fromLane="0" toLane="0" via=":15_0_0" dir="t" state="M"/>
    <connection from="20" to="-20" fromLane="0" toLane="0" via=":19_0_0" dir="t" state="M"/>
    <connection from="22" to="-22" fromLane="0" toLane="0" via=":21_0_0" dir="t" state="M"/>
    <connection from="3" to="13" fromLane="0" toLane="0" via=":2_0_0" dir="l" state="M"/>
    <connection from="7" to="-7" fromLane="0" toLane="0" via=":6_0_0" dir="t" state="M"/>
    <connection from="9" to="20" fromLane="0" toLane="0" via=":8_12_0" tl="8" linkIndex="12" dir="R" state="O"/>
    <connection from="9" to="16" fromLane="0" toLane="0" via=":8_13_0" tl="8" linkIndex="13" dir="s" state="O"/>
    <connection from="9" to="22" fromLane="0" toLane="0" via=":8_14_0" tl="8" linkIndex="14" dir="l" state="o"/>
    <connection from="9" to="-9" fromLane="0" toLane="0" via=":8_15_0" tl="8" linkIndex="15" dir="t" state="o"/>

    <connection from=":1_0" to="11" fromLane="0" toLane="0" dir="r" state="M"/>
    <connection from=":1_1" to="3" fromLane="0" toLane="0" dir="s" state="M"/>
    <connection from=":1_2" to="9" fromLane="0" toLane="0" via=":1_16_0" dir="l" state="m"/>
    <connection from=":1_16" to="9" fromLane="0" toLane="0" dir="l" state="M"/>
    <connection from=":1_3" to="7" fromLane="0" toLane="0" via=":1_17_0" dir="t" state="m"/>
    <connection from=":1_17" to="7" fromLane="0" toLane="0" dir="t" state="M"/>
    <connection from=":1_4" to="7" fromLane="0" toLane="0" dir="r" state="M"/>
    <connection from=":1_5" to="11" fromLane="0" toLane="0" dir="s" state="M"/>
    <connection from=":1_6" to="3" fromLane="0" toLane="0" via=":1_18_0" dir="l" state="m"/>
    <connection from=":1_18" to="3" fromLane="0" toLane="0" dir="l" state="M"/>
    <connection from=":1_7" to="9" fromLane="0" toLane="0" via=":1_19_0" dir="t" state="m"/>
    <connection from=":1_19" to="9" fromLane="0" toLane="0" dir="t" state="M"/>
    <connection from=":1_8" to="9" fromLane="0" toLane="0" dir="r" state="M"/>
    <connection from=":1_9" to="7" fromLane="0" toLane="0" dir="s" state="M"/>
    <connection from=":1_10" to="11" fromLane="0" toLane="0" via=":1_20_0" dir="l" state="m"/>
    <connection from=":1_20" to="11" fromLane="0" toLane="0" dir="l" state="M"/>
    <connection from=":1_11" to="3" fromLane="0" toLane="0" via=":1_21_0" dir="t" state="m"/>
    <connection from=":1_21" to="3" fromLane="0" toLane="0" dir="t" state="M"/>
    <connection from=":1_12" to="3" fromLane="0" toLane="0" dir="r" state="M"/>
    <connection from=":1_13" to="9" fromLane="0" toLane="0" dir="s" state="M"/>
    <connection from=":1_14" to="7" fromLane="0" toLane="0" via=":1_22_0" dir="l" state="m"/>
    <connection from=":1_22" to="7" fromLane="0" toLane="0" dir="l" state="M"/>
    <connection from=":1_15" to="11" fromLane="0" toLane="0" via=":1_23_0" dir="t" state="m"/>
    <connection from=":1_23" to="11" fromLane="0" toLane="0" dir="t" state="M"/>
    <connection from=":10_0" to="-11" fromLane="0" toLane="0" dir="t" state="M"/>
    <connection from=":12_0" to="-13" fromLane="0" toLane="0" dir="t" state="M"/>
    <connection from=":15_0" to="-16" fromLane="0" toLane="0" dir="t" state="M"/>
    <connection from=":19_0" to="-20" fromLane="0" toLane="0" dir="t" state="M"/>
    <connection from=":2_0" to="13" fromLane="0" toLane="0" dir="l" state="M"/>