<?xml version="1.0" encoding="UTF-8"?>

<!-- generated on 2025-04-14 12:45:24 by Eclipse SUMO netgenerate Version 1.22.0
<netgenerateConfiguration xmlns:xsi="http://www.w3.org/2001/XMLSchema-instance" xsi:noNamespaceSchemaLocation="http://sumo.dlr.de/xsd/netgenerateConfiguration.xsd">

    <random_network>
        <rand value="true"/>
        <rand.iterations value="500"/>
        <rand.max-distance value="1334.0073469260742"/>
        <rand.min-distance value="150.0"/>
        <rand.min-angle value="40.04394949073006"/>
        <rand.neighbor-dist1 value="3.0"/>
        <rand.neighbor-dist2 value="1.0"/>
        <rand.neighbor-dist3 value="0.0"/>
        <rand.neighbor-dist4 value="5.0"/>
        <rand.neighbor-dist5 value="0.0"/>
        <rand.neighbor-dist6 value="0.0"/>
    </random_network>

    <output>
        <output-file value="configs/rand-configs/rand3.net.xml"/>
    </output>

    <tls_building>
        <tls.guess value="true"/>
        <tls.guess.threshold value="0"/>
    </tls_building>

</netgenerateConfiguration>
-->

<net version="1.20" junctionCornerDetail="5" limitTurnSpeed="5.50" xmlns:xsi="http://www.w3.org/2001/XMLSchema-instance" xsi:noNamespaceSchemaLocation="http://sumo.dlr.de/xsd/net_file.xsd">

    <location netOffset="10387.56,6455.51" convBoundary="0.00,0.00,23706.12,14454.59" origBoundary="-10387.56,-6455.51,13318.57,7999.08" projParameter="!"/>

    <edge id=":1_0" function="internal">
        <lane id=":1_0_0" index="0" speed="11.26" length="16.20" shape="10386.07,6462.91 10385.44,6459.69 10383.67,6456.55 10380.73,6453.48 10376.65,6450.49"/>
    </edge>
    <edge id=":1_1" function="internal">
        <lane id=":1_1_0" index="0" speed="13.89" length="18.84" shape="10386.07,6462.91 10385.76,6458.58 10385.05,6453.56 10384.15,6448.56 10383.22,6444.31"/>
    </edge>
    <edge id=":1_2" function="internal">
        <lane id=":1_2_0" index="0" speed="7.91" length="3.57" shape="10386.07,6462.91 10386.52,6459.36"/>
    </edge>
    <edge id=":1_3" function="internal">
        <lane id=":1_3_0" index="0" speed="3.65" length="1.44" shape="10386.07,6462.91 10386.85,6461.69"/>
    </edge>
    <edge id=":1_16" function="internal">
        <lane id=":1_16_0" index="0" speed="7.91" length="10.83" shape="10386.52,6459.36 10386.58,6458.96 10388.23,6456.20 10391.03,6454.60 10394.99,6454.19"/>
    </edge>
    <edge id=":1_17" function="internal">
        <lane id=":1_17_0" index="0" speed="3.65" length="3.23" shape="10386.85,6461.69 10387.65,6461.28 10388.45,6461.67 10389.27,6462.86"/>
    </edge>
    <edge id=":1_4" function="internal">
        <lane id=":1_4_0" index="0" speed="6.39" length="9.04" shape="10394.87,6457.38 10392.38,6457.65 10390.63,6458.64 10389.59,6460.38 10389.27,6462.86"/>
    </edge>
    <edge id=":1_5" function="internal">
        <lane id=":1_5_0" index="0" speed="13.89" length="19.61" shape="10394.87,6457.38 10390.51,6456.60 10385.47,6454.87 10380.58,6452.67 10376.65,6450.49"/>
    </edge>
    <edge id=":1_6" function="internal">
        <lane id=":1_6_0" index="0" speed="10.07" length="4.78" shape="10394.87,6457.38 10391.43,6456.07 10390.61,6455.33"/>
    </edge>
    <edge id=":1_7" function="internal">
        <lane id=":1_7_0" index="0" speed="3.65" length="1.44" shape="10394.87,6457.38 10393.70,6456.54"/>
    </edge>
    <edge id=":1_18" function="internal">
        <lane id=":1_18_0" index="0" speed="10.07" length="13.48" shape="10390.61,6455.33 10387.95,6452.91 10385.01,6448.72 10383.22,6444.31"/>
    </edge>
    <edge id=":1_19" function="internal">
        <lane id=":1_19_0" index="0" speed="3.65" length="3.23" shape="10393.70,6456.54 10393.33,6455.73 10393.76,6454.94 10394.99,6454.19"/>
    </edge>
    <edge id=":1_8" function="internal">
        <lane id=":1_8_0" index="0" speed="9.08" length="14.69" shape="10386.33,6443.56 10387.81,6448.12 10389.74,6451.41 10392.14,6453.44 10394.99,6454.19"/>
    </edge>
    <edge id=":1_9" function="internal">
        <lane id=":1_9_0" index="0" speed="13.89" length="19.54" shape="10386.33,6443.56 10387.27,6447.93 10388.21,6453.16 10388.94,6458.42 10389.27,6462.86"/>
    </edge>
    <edge id=":1_10" function="internal">
        <lane id=":1_10_0" index="0" speed="7.43" length="6.42" shape="10386.33,6443.56 10387.12,6449.77 10387.05,6449.92"/>
    </edge>
    <edge id=":1_11" function="internal">
        <lane id=":1_11_0" index="0" speed="3.65" length="1.44" shape="10386.33,6443.56 10385.84,6444.92"/>
    </edge>
    <edge id=":1_20" function="internal">
        <lane id=":1_20_0" index="0" speed="7.43" length="13.09" shape="10387.05,6449.92 10385.76,6453.00 10382.27,6453.24 10376.65,6450.49"/>
    </edge>
    <edge id=":1_21" function="internal">
        <lane id=":1_21_0" index="0" speed="3.65" length="3.23" shape="10385.84,6444.92 10385.15,6445.49 10384.28,6445.29 10383.22,6444.31"/>
    </edge>
    <edge id=":1_12" function="internal">
        <lane id=":1_12_0" index="0" speed="5.47" length="9.79" shape="10378.37,6447.78 10381.19,6449.16 10382.94,6449.04 10383.61,6447.43 10383.22,6444.31"/>
    </edge>
    <edge id=":1_13" function="internal">
        <lane id=":1_13_0" index="0" speed="13.89" length="17.96" shape="10378.37,6447.78 10382.04,6449.89 10386.39,6451.92 10390.88,6453.48 10394.99,6454.19"/>
    </edge>
    <edge id=":1_14" function="internal">
        <lane id=":1_14_0" index="0" speed="12.18" length="5.03" shape="10378.37,6447.78 10382.27,6450.96"/>
    </edge>
    <edge id=":1_15" function="internal">
        <lane id=":1_15_0" index="0" speed="3.65" length="1.44" shape="10378.37,6447.78 10378.95,6449.10"/>
    </edge>
    <edge id=":1_22" function="internal">
        <lane id=":1_22_0" index="0" speed="12.18" length="14.02" shape="10382.27,6450.96 10385.76,6455.02 10388.28,6459.23 10389.27,6462.86"/>
    </edge>
    <edge id=":1_23" function="internal">
        <lane id=":1_23_0" index="0" speed="3.65" length="3.23" shape="10378.95,6449.10 10378.86,6449.99 10378.09,6450.45 10376.65,6450.49"/>
    </edge>
    <edge id=":10_0" function="internal">
        <lane id=":10_0_0" index="0" speed="13.89" length="17.47" shape="9444.76,5490.78 9440.87,5492.18 9436.64,5493.99 9432.52,5496.03 9428.93,5498.08"/>
    </edge>
    <edge id=":10_1" function="internal">
        <lane id=":10_1_0" index="0" speed="13.12" length="18.26" shape="9444.76,5490.78 9440.22,5491.70 9435.79,5491.61 9431.46,5490.51 9427.23,5488.41"/>
    </edge>
    <edge id=":10_2" function="internal">
        <lane id=":10_2_0" index="0" speed="7.51" length="16.23" shape="9444.76,5490.78 9440.11,5491.53 9436.97,5490.43 9435.33,5487.47 9435.20,5482.66"/>
    </edge>
    <edge id=":10_3" function="internal">
        <lane id=":10_3_0" index="0" speed="3.65" length="1.44" shape="9444.76,5490.78 9443.38,5490.38"/>
    </edge>
    <edge id=":10_16" function="internal">
        <lane id=":10_16_0" index="0" speed="3.65" length="3.23" shape="9443.38,5490.38 9442.76,5489.73 9442.90,5488.85 9443.81,5487.73"/>
    </edge>
    <edge id=":10_4" function="internal">
        <lane id=":10_4_0" index="0" speed="5.85" length="9.31" shape="9438.38,5483.01 9438.45,5485.79 9439.38,5487.50 9441.17,5488.15 9443.81,5487.73"/>
    </edge>
    <edge id=":10_5" function="internal">
        <lane id=":10_5_0" index="0" speed="12.74" length="18.42" shape="9438.38,5483.01 9437.39,5487.63 9435.48,5491.69 9432.66,5495.17 9428.93,5498.08"/>
    </edge>
    <edge id=":10_6" function="internal">
        <lane id=":10_6_0" index="0" speed="7.45" length="16.33" shape="9438.38,5483.01 9437.21,5487.69 9434.96,5490.15 9431.64,5490.39 9427.23,5488.41"/>
    </edge>
    <edge id=":10_7" function="internal">
        <lane id=":10_7_0" index="0" speed="3.65" length="1.44" shape="9438.38,5483.01 9437.46,5484.12"/>
    </edge>
    <edge id=":10_17" function="internal">
        <lane id=":10_17_0" index="0" speed="3.65" length="3.23" shape="9437.46,5484.12 9436.62,5484.43 9435.87,5483.94 9435.20,5482.66"/>
    </edge>
    <edge id=":10_8" function="internal">
        <lane id=":10_8_0" index="0" speed="5.75" length="9.18" shape="9428.93,5485.69 9431.41,5486.81 9433.28,5486.68 9434.54,5485.30 9435.20,5482.66"/>
    </edge>
    <edge id=":10_9" function="internal">
        <lane id=":10_9_0" index="0" speed="12.12" length="15.50" shape="9428.93,5485.69 9432.52,5487.49 9436.20,5488.43 9439.96,5488.51 9443.81,5487.73"/>
    </edge>
    <edge id=":10_10" function="internal">
        <lane id=":10_10_0" index="0" speed="7.44" length="16.33" shape="9428.93,5485.69 9432.64,5488.79 9433.88,5491.89 9432.64,5494.98 9428.93,5498.08"/>
    </edge>
    <edge id=":10_11" function="internal">
        <lane id=":10_11_0" index="0" speed="3.65" length="1.44" shape="9428.93,5485.69 9429.52,5487.01"/>
    </edge>
    <edge id=":10_18" function="internal">
        <lane id=":10_18_0" index="0" speed="3.65" length="3.23" shape="9429.52,5487.01 9429.44,5487.90 9428.67,5488.37 9427.23,5488.41"/>
    </edge>
    <edge id=":10_12" function="internal">
        <lane id=":10_12_0" index="0" speed="5.75" length="9.18" shape="9427.23,5495.36 9429.31,5493.62 9430.01,5491.89 9429.32,5490.15 9427.23,5488.41"/>
    </edge>
    <edge id=":10_13" function="internal">
        <lane id=":10_13_0" index="0" speed="11.73" length="15.53" shape="9427.23,5495.36 9430.38,5492.91 9432.76,5489.98 9434.37,5486.56 9435.20,5482.66"/>
    </edge>
    <edge id=":10_14" function="internal">
        <lane id=":10_14_0" index="0" speed="13.89" length="18.29" shape="9427.23,5495.36 9430.94,5493.26 9435.32,5491.11 9439.80,5489.17 9443.81,5487.73"/>
    </edge>
    <edge id=":10_15" function="internal">
        <lane id=":10_15_0" index="0" speed="3.65" length="1.44" shape="9427.23,5495.36 9428.67,5495.40"/>
    </edge>
    <edge id=":10_19" function="internal">
        <lane id=":10_19_0" index="0" speed="3.65" length="3.23" shape="9428.67,5495.40 9429.43,5495.87 9429.52,5496.76 9428.93,5498.08"/>
    </edge>
    <edge id=":10020_0" function="internal">
        <lane id=":10020_0_0" index="0" speed="13.89" length="0.71" shape="14391.05,4561.11 14390.85,4561.17 14390.72,4561.23 14390.60,4561.31 14390.44,4561.44"/>
    </edge>
    <edge id=":10020_1" function="internal">
        <lane id=":10020_1_0" index="0" speed="8.39" length="2.12" shape="14388.35,4559.02 14388.83,4558.62 14389.19,4558.38 14389.59,4558.21 14390.19,4558.03"/>
    </edge>
    <edge id=":10028_0" function="internal">
        <lane id=":10028_0_0" index="0" speed="6.64" length="15.69" shape="14493.46,5811.10 14491.07,5815.62 14488.77,5817.09 14486.56,5815.49 14484.45,5810.82"/>
    </edge>
    <edge id=":10028_1" function="internal">
        <lane id=":10028_1_0" index="0" speed="4.20" length="5.23" shape="14487.49,5809.81 14488.19,5811.37 14488.93,5811.90 14489.69,5811.41 14490.49,5809.90"/>
    </edge>
    <edge id=":10106_0" function="internal">
        <lane id=":10106_0_0" index="0" speed="3.65" length="4.67" shape="14966.74,4983.40 14967.71,4984.47 14967.90,4985.35 14967.31,4986.02 14965.95,4986.50"/>
    </edge>
    <edge id=":10108_0" function="internal">
        <lane id=":10108_0_0" index="0" speed="13.89" length="11.58" shape="14569.41,4513.83 14566.26,4513.21 14563.70,4513.10 14561.15,4513.48 14558.02,4514.29"/>
    </edge>
    <edge id=":10108_1" function="internal">
        <lane id=":10108_1_0" index="0" speed="9.48" length="3.21" shape="14569.41,4513.83 14566.43,4512.65"/>
    </edge>
    <edge id=":10108_2" function="internal">
        <lane id=":10108_2_0" index="0" speed="3.65" length="1.44" shape="14569.41,4513.83 14568.44,4512.77"/>
    </edge>
    <edge id=":10108_9" function="internal">
        <lane id=":10108_9_0" index="0" speed="9.48" length="9.92" shape="14566.43,4512.65 14564.05,4510.71 14562.28,4508.02 14561.11,4504.58"/>
    </edge>
    <edge id=":10108_10" function="internal">
        <lane id=":10108_10_0" index="0" speed="3.65" length="3.23" shape="14568.44,4512.77 14568.24,4511.89 14568.82,4511.21 14570.17,4510.72"/>
    </edge>
    <edge id=":10108_3" function="internal">
        <lane id=":10108_3_0" index="0" speed="8.17" length="9.58" shape="14564.23,4503.87 14565.09,4506.44 14566.36,4508.44 14568.06,4509.86 14570.17,4510.72"/>
    </edge>
    <edge id=":10108_4" function="internal">
        <lane id=":10108_4_0" index="0" speed="8.01" length="13.68" shape="14564.23,4503.87 14564.53,4507.58 14563.60,4510.55 14561.43,4512.79 14558.02,4514.29"/>
    </edge>
    <edge id=":10108_5" function="internal">
        <lane id=":10108_5_0" index="0" speed="3.65" length="1.44" shape="14564.23,4503.87 14563.71,4505.22"/>
    </edge>
    <edge id=":10108_11" function="internal">
        <lane id=":10108_11_0" index="0" speed="3.65" length="3.23" shape="14563.71,4505.22 14563.02,4505.78 14562.15,4505.57 14561.11,4504.58"/>
    </edge>
    <edge id=":10108_6" function="internal">
        <lane id=":10108_6_0" index="0" speed="6.51" length="8.70" shape="14557.16,4511.20 14559.33,4510.25 14560.71,4508.83 14561.30,4506.94 14561.11,4504.58"/>
    </edge>
    <edge id=":10108_7" function="internal">
        <lane id=":10108_7_0" index="0" speed="13.89" length="13.19" shape="14557.16,4511.20 14560.54,4510.39 14563.65,4510.01 14566.77,4510.10 14570.17,4510.72"/>
    </edge>
    <edge id=":10108_8" function="internal">
        <lane id=":10108_8_0" index="0" speed="3.65" length="1.44" shape="14557.16,4511.20 14558.53,4511.65"/>
    </edge>
    <edge id=":10108_12" function="internal">
        <lane id=":10108_12_0" index="0" speed="3.65" length="3.23" shape="14558.53,4511.65 14559.13,4512.31 14558.96,4513.19 14558.02,4514.29"/>
    </edge>
    <edge id=":10110_0" function="internal">
        <lane id=":10110_0_0" index="0" speed="6.14" length="6.43" shape="13218.71,3388.15 13217.03,3388.43 13215.55,3388.18 13214.27,3387.38 13213.19,3386.05"/>
    </edge>
    <edge id=":10110_1" function="internal">
        <lane id=":10110_1_0" index="0" speed="3.94" length="2.14" shape="13215.93,3384.39 13216.29,3384.83 13216.71,3385.10 13217.21,3385.18 13217.77,3385.09"/>
    </edge>
    <edge id=":10112_0" function="internal">
        <lane id=":10112_0_0" index="0" speed="3.91" length="2.55" shape="12839.96,3358.34 12839.45,3357.86 12838.91,3357.65 12838.34,3357.72 12837.73,3358.06"/>
    </edge>
    <edge id=":10112_1" function="internal">
        <lane id=":10112_1_0" index="0" speed="6.08" length="7.65" shape="12835.79,3355.51 12837.62,3354.49 12839.34,3354.29 12840.96,3354.92 12842.47,3356.36"/>
    </edge>
    <edge id=":10120_0" function="internal">
        <lane id=":10120_0_0" index="0" speed="6.43" length="13.78" shape="12182.72,3863.28 12178.55,3862.03 12176.81,3860.19 12177.51,3857.76 12180.65,3854.74"/>
    </edge>
    <edge id=":10120_1" function="internal">
        <lane id=":10120_1_0" index="0" speed="4.09" length="4.59" shape="12182.59,3857.28 12181.54,3858.29 12181.31,3859.10 12181.89,3859.71 12183.28,3860.13"/>
    </edge>
    <edge id=":10134_0" function="internal">
        <lane id=":10134_0_0" index="0" speed="6.09" length="7.34" shape="13562.09,3610.65 13563.81,3611.66 13564.83,3612.99 13565.16,3614.64 13564.80,3616.60"/>
    </edge>
    <edge id=":10134_1" function="internal">
        <lane id=":10134_1_0" index="0" speed="3.91" length="2.45" shape="13561.77,3615.59 13561.89,3614.93 13561.78,3614.38 13561.44,3613.94 13560.86,3613.60"/>
    </edge>
    <edge id=":10140_0" function="internal">
        <lane id=":10140_0_0" index="0" speed="7.40" length="2.70" shape="8947.05,2122.36 8947.44,2123.05 8947.64,2123.57 8947.71,2124.12 8947.71,2124.91"/>
    </edge>
    <edge id=":10140_1" function="internal">
        <lane id=":10140_1_0" index="0" speed="13.89" length="0.90" shape="8944.51,2124.84 8944.51,2124.57 8944.49,2124.39 8944.42,2124.21 8944.29,2123.98"/>
    </edge>
    <edge id=":10263_0" function="internal">
        <lane id=":10263_0_0" index="0" speed="3.65" length="4.67" shape="8895.56,10031.40 8895.65,10032.84 8895.25,10033.64 8894.37,10033.80 8893.01,10033.33"/>
    </edge>
    <edge id=":10355_0" function="internal">
        <lane id=":10355_0_0" index="0" speed="3.65" length="4.67" shape="8559.53,9848.11 8558.62,9849.22 8557.79,9849.55 8557.03,9849.07 8556.35,9847.80"/>
    </edge>
    <edge id=":10464_0" function="internal">
        <lane id=":10464_0_0" index="0" speed="3.65" length="4.67" shape="2021.97,6572.35 2021.30,6573.62 2020.54,6574.10 2019.71,6573.78 2018.79,6572.67"/>
    </edge>
    <edge id=":10572_0" function="internal">
        <lane id=":10572_0_0" index="0" speed="3.65" length="4.67" shape="1240.94,7457.72 1240.58,7459.12 1239.96,7459.76 1239.07,7459.65 1237.92,7458.78"/>
    </edge>
    <edge id=":10576_0" function="internal">
        <lane id=":10576_0_0" index="0" speed="3.65" length="4.67" shape="2133.83,6819.87 2135.19,6819.37 2136.07,6819.51 2136.48,6820.30 2136.43,6821.74"/>
    </edge>
    <edge id=":10582_0" function="internal">
        <lane id=":10582_0_0" index="0" speed="3.65" length="4.67" shape="1946.57,7700.78 1946.48,7702.21 1945.98,7702.96 1945.09,7703.02 1943.80,7702.38"/>
    </edge>
    <edge id=":10590_0" function="internal">
        <lane id=":10590_0_0" index="0" speed="3.65" length="4.67" shape="942.48,7972.74 941.04,7972.83 940.24,7972.44 940.08,7971.56 940.55,7970.20"/>
    </edge>
    <edge id=":10592_0" function="internal">
        <lane id=":10592_0_0" index="0" speed="3.65" length="4.67" shape="-1.31,6618.31 -1.34,6616.86 -0.92,6616.08 -0.03,6615.95 1.31,6616.47"/>
    </edge>
    <edge id=":1063_0" function="internal">
        <lane id=":1063_0_0" index="0" speed="3.65" length="4.67" shape="14177.96,9583.15 14177.36,9584.46 14176.63,9584.99 14175.78,9584.72 14174.80,9583.66"/>
    </edge>
    <edge id=":10666_0" function="internal">
        <lane id=":10666_0_0" index="0" speed="3.65" length="4.67" shape="4598.49,7105.13 4599.07,7103.80 4599.78,7103.27 4600.64,7103.52 4601.64,7104.55"/>
    </edge>
    <edge id=":1068_0" function="internal">
        <lane id=":1068_0_0" index="0" speed="3.90" length="2.89" shape="13715.87,10383.03 13715.07,10382.87 13714.46,10383.02 13714.02,10383.48 13713.76,10384.25"/>
    </edge>
    <edge id=":1068_1" function="internal">
        <lane id=":1068_1_0" index="0" speed="6.07" length="8.68" shape="13710.61,10383.67 13711.39,10381.36 13712.71,10379.98 13714.56,10379.53 13716.95,10380.02"/>
    </edge>
    <edge id=":10771_0" function="internal">
        <lane id=":10771_0_0" index="0" speed="3.65" length="4.67" shape="12834.73,9970.28 12833.39,9969.73 12832.84,9969.03 12833.08,9968.16 12834.09,9967.14"/>
    </edge>
    <edge id=":1082_0" function="internal">
        <lane id=":1082_0_0" index="0" speed="13.89" length="23.27" shape="14534.59,11567.99 14530.72,11564.76 14525.44,11560.81 14520.01,11557.06 14515.72,11554.41"/>
    </edge>
    <edge id=":1082_1" function="internal">
        <lane id=":1082_1_0" index="0" speed="13.89" length="24.00" shape="14534.59,11567.99 14531.27,11564.06 14527.41,11558.40 14523.95,11552.48 14521.82,11547.80"/>
    </edge>
    <edge id=":1082_2" function="internal">
        <lane id=":1082_2_0" index="0" speed="7.43" length="19.47" shape="14534.59,11567.99 14530.53,11563.25 14529.89,11559.81 14532.67,11557.69 14538.85,11556.88"/>
    </edge>
    <edge id=":1082_3" function="internal">
        <lane id=":1082_3_0" index="0" speed="3.65" length="1.44" shape="14534.59,11567.99 14534.26,11566.59"/>
    </edge>
    <edge id=":1082_16" function="internal">
        <lane id=":1082_16_0" index="0" speed="3.65" length="3.23" shape="14534.26,11566.59 14534.51,11565.73 14535.35,11565.42 14536.77,11565.66"/>
    </edge>
    <edge id=":1082_4" function="internal">
        <lane id=":1082_4_0" index="0" speed="5.47" length="9.78" shape="14538.92,11560.08 14535.81,11560.48 14534.42,11561.55 14534.74,11563.28 14536.77,11565.66"/>
    </edge>
    <edge id=":1082_5" function="internal">
        <lane id=":1082_5_0" index="0" speed="13.89" length="23.99" shape="14538.92,11560.08 14533.80,11559.57 14527.09,11558.17 14520.50,11556.31 14515.72,11554.41"/>
    </edge>
    <edge id=":1082_6" function="internal">
        <lane id=":1082_6_0" index="0" speed="11.30" length="22.76" shape="14538.92,11560.08 14532.96,11559.41 14528.12,11557.14 14524.41,11553.27 14521.82,11547.80"/>
    </edge>
    <edge id=":1082_7" function="internal">
        <lane id=":1082_7_0" index="0" speed="3.65" length="1.44" shape="14538.92,11560.08 14537.70,11559.30"/>
    </edge>
    <edge id=":1082_17" function="internal">
        <lane id=":1082_17_0" index="0" speed="3.65" length="3.23" shape="14537.70,11559.30 14537.29,11558.51 14537.67,11557.70 14538.85,11556.88"/>
    </edge>
    <edge id=":1082_8" function="internal">
        <lane id=":1082_8_0" index="0" speed="10.26" length="18.63" shape="14524.86,11546.81 14526.98,11551.29 14530.02,11554.47 14533.98,11556.33 14538.85,11556.88"/>
    </edge>
    <edge id=":1082_9" function="internal">
        <lane id=":1082_9_0" index="0" speed="13.89" length="22.41" shape="14524.86,11546.81 14526.86,11551.28 14530.03,11556.74 14533.59,11561.94 14536.77,11565.66"/>
    </edge>
    <edge id=":1082_10" function="internal">
        <lane id=":1082_10_0" index="0" speed="7.44" length="19.62" shape="14524.86,11546.81 14526.13,11552.99 14525.04,11556.32 14521.57,11556.79 14515.72,11554.41"/>
    </edge>
    <edge id=":1082_11" function="internal">
        <lane id=":1082_11_0" index="0" speed="3.65" length="1.44" shape="14524.86,11546.81 14524.47,11548.20"/>
    </edge>
    <edge id=":1082_18" function="internal">
        <lane id=":1082_18_0" index="0" speed="3.65" length="3.23" shape="14524.47,11548.20 14523.83,11548.83 14522.95,11548.69 14521.82,11547.80"/>
    </edge>
    <edge id=":1082_12" function="internal">
        <lane id=":1082_12_0" index="0" speed="5.47" length="9.81" shape="14517.25,11551.60 14520.17,11552.79 14521.90,11552.55 14522.45,11550.89 14521.82,11547.80"/>
    </edge>
    <edge id=":1082_13" function="internal">
        <lane id=":1082_13_0" index="0" speed="13.89" length="22.36" shape="14517.25,11551.60 14521.77,11553.44 14527.82,11555.17 14533.99,11556.43 14538.85,11556.88"/>
    </edge>
    <edge id=":1082_14" function="internal">
        <lane id=":1082_14_0" index="0" speed="13.89" length="24.09" shape="14517.25,11551.60 14521.64,11554.32 14527.29,11558.24 14532.80,11562.35 14536.77,11565.66"/>
    </edge>
    <edge id=":1082_15" function="internal">
        <lane id=":1082_15_0" index="0" speed="3.65" length="1.44" shape="14517.25,11551.60 14517.92,11552.87"/>
    </edge>
    <edge id=":1082_19" function="internal">
        <lane id=":1082_19_0" index="0" speed="3.65" length="3.23" shape="14517.92,11552.87 14517.89,11553.77 14517.16,11554.28 14515.72,11554.41"/>
    </edge>
    <edge id=":10845_0" function="internal">
        <lane id=":10845_0_0" index="0" speed="3.65" length="4.67" shape="13352.60,9529.47 13352.80,9528.04 13353.35,9527.34 13354.24,9527.35 13355.49,9528.08"/>
    </edge>
    <edge id=":1087_0" function="internal">
        <lane id=":1087_0_0" index="0" speed="6.10" length="7.06" shape="15730.98,11806.47 15732.51,11807.59 15733.39,11808.96 15733.61,11810.57 15733.18,11812.42"/>
    </edge>
    <edge id=":1087_1" function="internal">
        <lane id=":1087_1_0" index="0" speed="3.92" length="2.35" shape="15730.19,11811.27 15730.34,11810.65 15730.26,11810.11 15729.97,11809.66 15729.46,11809.28"/>
    </edge>
    <edge id=":109_0" function="internal">
        <lane id=":109_0_0" index="0" speed="3.91" length="2.45" shape="13159.78,6334.24 13159.35,6333.74 13158.85,6333.49 13158.28,6333.49 13157.66,6333.73"/>
    </edge>
    <edge id=":109_1" function="internal">
        <lane id=":109_1_0" index="0" speed="6.09" length="7.36" shape="13156.10,6330.94 13157.96,6330.21 13159.64,6330.23 13161.14,6330.99 13162.46,6332.49"/>
    </edge>
    <edge id=":1091_0" function="internal">
        <lane id=":1091_0_0" index="0" speed="6.11" length="9.06" shape="15524.51,10615.93 15522.10,10615.05 15520.14,10615.24 15518.63,10616.49 15517.55,10618.82"/>
    </edge>
    <edge id=":1091_1" function="internal">
        <lane id=":1091_1_0" index="0" speed="13.89" length="16.07" shape="15524.51,10615.93 15521.14,10613.93 15517.75,10611.60 15514.52,10609.04 15511.63,10606.40"/>
    </edge>
    <edge id=":1091_2" function="internal">
        <lane id=":1091_2_0" index="0" speed="7.63" length="4.67" shape="15524.51,10615.93 15522.10,10613.62 15521.57,10612.40"/>
    </edge>
    <edge id=":1091_3" function="internal">
        <lane id=":1091_3_0" index="0" speed="3.65" length="1.44" shape="15524.51,10615.93 15523.83,10614.66"/>
    </edge>
    <edge id=":1091_16" function="internal">
        <lane id=":1091_16_0" index="0" speed="7.63" length="9.31" shape="15521.57,10612.40 15520.65,10610.25 15520.37,10606.60 15521.46,10603.47"/>
    </edge>
    <edge id=":1091_17" function="internal">
        <lane id=":1091_17_0" index="0" speed="3.65" length="3.23" shape="15523.83,10614.66 15523.86,10613.76 15524.59,10613.25 15526.02,10613.11"/>
    </edge>
    <edge id=":1091_4" function="internal">
        <lane id=":1091_4_0" index="0" speed="6.38" length="9.44" shape="15524.08,10605.32 15522.91,10607.64 15522.84,10609.71 15523.88,10611.53 15526.02,10613.11"/>
    </edge>
    <edge id=":1091_5" function="internal">
        <lane id=":1091_5_0" index="0" speed="13.89" length="15.06" shape="15524.08,10605.32 15522.04,10608.47 15520.27,10611.80 15518.77,10615.26 15517.55,10618.82"/>
    </edge>
    <edge id=":1091_6" function="internal">
        <lane id=":1091_6_0" index="0" speed="7.73" length="3.76" shape="15524.08,10605.32 15521.49,10608.05"/>
    </edge>
    <edge id=":1091_7" function="internal">
        <lane id=":1091_7_0" index="0" speed="3.65" length="1.44" shape="15524.08,10605.32 15522.73,10605.83"/>
    </edge>
    <edge id=":1091_18" function="internal">
        <lane id=":1091_18_0" index="0" speed="7.73" length="11.11" shape="15521.49,10608.05 15521.21,10608.35 15518.17,10609.54 15514.98,10608.89 15511.63,10606.40"/>
    </edge>
    <edge id=":1091_19" function="internal">
        <lane id=":1091_19_0" index="0" speed="3.65" length="3.23" shape="15522.73,10605.83 15521.85,10605.70 15521.43,10604.91 15521.46,10603.47"/>
    </edge>
    <edge id=":1091_8" function="internal">
        <lane id=":1091_8_0" index="0" speed="6.17" length="9.05" shape="15513.89,10604.13 15515.93,10605.65 15517.87,10606.04 15519.72,10605.32 15521.46,10603.47"/>
    </edge>
    <edge id=":1091_9" function="internal">
        <lane id=":1091_9_0" index="0" speed="13.89" length="15.15" shape="15513.89,10604.13 15516.66,10606.69 15519.63,10609.05 15522.77,10611.20 15526.02,10613.11"/>
    </edge>
    <edge id=":1091_10" function="internal">
        <lane id=":1091_10_0" index="0" speed="10.49" length="4.13" shape="15513.89,10604.13 15515.95,10607.12 15516.11,10607.59"/>
    </edge>
    <edge id=":1091_11" function="internal">
        <lane id=":1091_11_0" index="0" speed="3.65" length="1.44" shape="15513.89,10604.13 15514.17,10605.54"/>
    </edge>
    <edge id=":1091_20" function="internal">
        <lane id=":1091_20_0" index="0" speed="10.49" length="11.51" shape="15516.11,10607.59 15517.36,10611.03 15517.95,10615.16 15517.55,10618.82"/>
    </edge>
    <edge id=":1091_21" function="internal">
        <lane id=":1091_21_0" index="0" speed="3.65" length="3.23" shape="15514.17,10605.54 15513.89,10606.39 15513.04,10606.68 15511.63,10606.40"/>
    </edge>
    <edge id=":1091_12" function="internal">
        <lane id=":1091_12_0" index="0" speed="9.42" length="12.49" shape="15514.49,10617.91 15515.05,10614.68 15514.77,10611.68 15513.62,10608.92 15511.63,10606.40"/>
    </edge>
    <edge id=":1091_13" function="internal">
        <lane id=":1091_13_0" index="0" speed="13.89" length="16.09" shape="15514.49,10617.91 15515.77,10614.20 15517.43,10610.42 15519.36,10606.77 15521.46,10603.47"/>
    </edge>
    <edge id=":1091_14" function="internal">
        <lane id=":1091_14_0" index="0" speed="7.68" length="4.67" shape="15514.49,10617.91 15516.26,10614.05 15516.59,10613.78"/>
    </edge>
    <edge id=":1091_15" function="internal">
        <lane id=":1091_15_0" index="0" speed="3.65" length="1.44" shape="15514.49,10617.91 15515.59,10616.98"/>
    </edge>
    <edge id=":1091_22" function="internal">
        <lane id=":1091_22_0" index="0" speed="7.68" length="10.36" shape="15516.59,10613.78 15518.78,10611.96 15522.03,10611.65 15526.02,10613.11"/>
    </edge>
    <edge id=":1091_23" function="internal">
        <lane id=":1091_23_0" index="0" speed="3.65" length="3.23" shape="15515.59,10616.98 15516.48,10616.83 15517.13,10617.44 15517.55,10618.82"/>
    </edge>
    <edge id=":10951_0" function="internal">
        <lane id=":10951_0_0" index="0" speed="3.65" length="4.67" shape="11780.26,12357.86 11779.52,12356.62 11779.51,12355.72 11780.21,12355.18 11781.64,12354.97"/>
    </edge>
    <edge id=":10953_0" function="internal">
        <lane id=":10953_0_0" index="0" speed="3.65" length="4.67" shape="12914.64,13144.47 12915.90,13145.17 12916.36,13145.94 12916.02,13146.77 12914.89,13147.66"/>
    </edge>
    <edge id=":10955_0" function="internal">
        <lane id=":10955_0_0" index="0" speed="3.65" length="4.67" shape="12414.85,14328.17 12414.53,14329.57 12413.93,14330.23 12413.04,14330.14 12411.86,14329.30"/>
    </edge>
    <edge id=":10985_0" function="internal">
        <lane id=":10985_0_0" index="0" speed="3.65" length="4.67" shape="11505.61,13888.29 11504.26,13888.79 11503.38,13888.64 11502.97,13887.85 11503.03,13886.41"/>
    </edge>
    <edge id=":10998_0" function="internal">
        <lane id=":10998_0_0" index="0" speed="3.65" length="4.67" shape="1527.32,9149.63 1526.04,9148.96 1525.56,9148.21 1525.88,9147.37 1526.98,9146.45"/>
    </edge>
    <edge id=":11000_0" function="internal">