<configuration><input><net-file value="rand1.net.xml" /></input></configuration>