<?xml version="1.0" encoding="UTF-8"?>

<!-- generated on 2025-03-26 03:36:19 by Eclipse SUMO netgenerate Version 1.22.0
<netgenerateConfiguration xmlns:xsi="http://www.w3.org/2001/XMLSchema-instance" xsi:noNamespaceSchemaLocation="http://sumo.dlr.de/xsd/netgenerateConfiguration.xsd">

    <random_network>
        <rand value="true"/>
        <rand.iterations value="302"/>
        <rand.max-distance value="2500.941380857376"/>
        <rand.min-distance value="937.2986399373337"/>
        <rand.min-angle value="33.79756440346881"/>
        <rand.neighbor-dist1 value="1.0"/>
        <rand.neighbor-dist2 value="10.0"/>
        <rand.neighbor-dist3 value="5.0"/>
        <rand.neighbor-dist4 value="5.0"/>
        <rand.neighbor-dist5 value="0.0"/>
        <rand.neighbor-dist6 value="0.0"/>
    </random_network>

    <output>
        <output-file value="configs/rand-configs/rand4.net.xml"/>
    </output>

    <tls_building>
        <tls.guess value="true"/>
        <tls.guess.threshold value="0"/>
    </tls_building>

</netgenerateConfiguration>
-->

<net version="1.20" junctionCornerDetail="5" limitTurnSpeed="5.50" xmlns:xsi="http://www.w3.org/2001/XMLSchema-instance" xsi:noNamespaceSchemaLocation="http://sumo.dlr.de/xsd/net_file.xsd">

    <location netOffset="26976.50,16746.31" convBoundary="0.00,0.00,52309.63,32889.98" origBoundary="-26976.50,-16746.31,25333.12,16143.67" projParameter="!"/>

    <edge id=":1_0" function="internal">
        <lane id=":1_0_0" index="0" speed="11.26" length="16.20" shape="26975.02,16753.71 26974.39,16750.49 26972.61,16747.35 26969.68,16744.28 26965.60,16741.29"/>
    </edge>
    <edge id=":1_1" function="internal">
        <lane id=":1_1_0" index="0" speed="13.89" length="18.84" shape="26975.02,16753.71 26974.71,16749.38 26974.00,16744.36 26973.10,16739.37 26972.17,16735.11"/>
    </edge>
    <edge id=":1_2" function="internal">
        <lane id=":1_2_0" index="0" speed="7.91" length="3.57" shape="26975.02,16753.71 26975.47,16750.17"/>
    </edge>
    <edge id=":1_3" function="internal">
        <lane id=":1_3_0" index="0" speed="3.65" length="1.44" shape="26975.02,16753.71 26975.80,16752.50"/>
    </edge>
    <edge id=":1_16" function="internal">
        <lane id=":1_16_0" index="0" speed="7.91" length="10.83" shape="26975.47,16750.17 26975.52,16749.77 26977.18,16747.00 26979.98,16745.41 26983.94,16744.99"/>
    </edge>
    <edge id=":1_17" function="internal">
        <lane id=":1_17_0" index="0" speed="3.65" length="3.23" shape="26975.80,16752.50 26976.59,16752.09 26977.40,16752.47 26978.22,16753.66"/>
    </edge>
    <edge id=":1_4" function="internal">
        <lane id=":1_4_0" index="0" speed="6.39" length="9.04" shape="26983.81,16748.19 26981.33,16748.45 26979.57,16749.45 26978.54,16751.19 26978.22,16753.66"/>
    </edge>
    <edge id=":1_5" function="internal">
        <lane id=":1_5_0" index="0" speed="13.89" length="19.61" shape="26983.81,16748.19 26979.45,16747.41 26974.42,16745.67 26969.52,16743.47 26965.60,16741.29"/>
    </edge>
    <edge id=":1_6" function="internal">
        <lane id=":1_6_0" index="0" speed="10.07" length="4.78" shape="26983.81,16748.19 26980.38,16746.87 26979.56,16746.13"/>
    </edge>
    <edge id=":1_7" function="internal">
        <lane id=":1_7_0" index="0" speed="3.65" length="1.44" shape="26983.81,16748.19 26982.65,16747.34"/>
    </edge>
    <edge id=":1_18" function="internal">
        <lane id=":1_18_0" index="0" speed="10.07" length="13.48" shape="26979.56,16746.13 26976.89,16743.72 26973.96,16739.53 26972.17,16735.11"/>
    </edge>
    <edge id=":1_19" function="internal">
        <lane id=":1_19_0" index="0" speed="3.65" length="3.23" shape="26982.65,16747.34 26982.28,16746.53 26982.71,16745.74 26983.94,16744.99"/>
    </edge>
    <edge id=":1_8" function="internal">
        <lane id=":1_8_0" index="0" speed="9.08" length="14.69" shape="26975.28,16734.37 26976.76,16738.93 26978.69,16742.22 26981.08,16744.24 26983.94,16744.99"/>
    </edge>
    <edge id=":1_9" function="internal">
        <lane id=":1_9_0" index="0" speed="13.89" length="19.54" shape="26975.28,16734.37 26976.22,16738.73 26977.16,16743.96 26977.89,16749.22 26978.22,16753.66"/>
    </edge>
    <edge id=":1_10" function="internal">
        <lane id=":1_10_0" index="0" speed="7.43" length="6.42" shape="26975.28,16734.37 26976.06,16740.58 26976.00,16740.72"/>
    </edge>
    <edge id=":1_11" function="internal">
        <lane id=":1_11_0" index="0" speed="3.65" length="1.44" shape="26975.28,16734.37 26974.78,16735.72"/>
    </edge>
    <edge id=":1_20" function="internal">
        <lane id=":1_20_0" index="0" speed="7.43" length="13.09" shape="26976.00,16740.72 26974.71,16743.80 26971.22,16744.04 26965.60,16741.29"/>
    </edge>
    <edge id=":1_21" function="internal">
        <lane id=":1_21_0" index="0" speed="3.65" length="3.23" shape="26974.78,16735.72 26974.10,16736.30 26973.23,16736.09 26972.17,16735.11"/>
    </edge>
    <edge id=":1_12" function="internal">
        <lane id=":1_12_0" index="0" speed="5.47" length="9.79" shape="26967.31,16738.59 26970.13,16739.97 26971.88,16739.85 26972.56,16738.23 26972.17,16735.11"/>
    </edge>
    <edge id=":1_13" function="internal">
        <lane id=":1_13_0" index="0" speed="13.89" length="17.96" shape="26967.31,16738.59 26970.99,16740.69 26975.33,16742.72 26979.82,16744.29 26983.94,16744.99"/>
    </edge>
    <edge id=":1_14" function="internal">
        <lane id=":1_14_0" index="0" speed="12.18" length="5.03" shape="26967.31,16738.59 26971.22,16741.76"/>
    </edge>
    <edge id=":1_15" function="internal">
        <lane id=":1_15_0" index="0" speed="3.65" length="1.44" shape="26967.31,16738.59 26967.90,16739.90"/>
    </edge>
    <edge id=":1_22" function="internal">
        <lane id=":1_22_0" index="0" speed="12.18" length="14.02" shape="26971.22,16741.76 26974.71,16745.82 26977.22,16750.03 26978.22,16753.66"/>
    </edge>
    <edge id=":1_23" function="internal">
        <lane id=":1_23_0" index="0" speed="3.65" length="3.23" shape="26967.90,16739.90 26967.81,16740.79 26967.04,16741.26 26965.60,16741.29"/>
    </edge>
    <edge id=":10_0" function="internal">
        <lane id=":10_0_0" index="0" speed="13.89" length="12.42" shape="24846.25,14974.07 24843.20,14975.36 24840.93,14977.04 24838.97,14979.18 24836.87,14981.84"/>
    </edge>
    <edge id=":10_1" function="internal">
        <lane id=":10_1_0" index="0" speed="13.89" length="14.28" shape="24846.25,14974.07 24842.71,14974.74 24839.24,14974.66 24835.76,14974.02 24832.22,14973.04"/>
    </edge>
    <edge id=":10_2" function="internal">
        <lane id=":10_2_0" index="0" speed="3.65" length="1.44" shape="24846.25,14974.07 24844.86,14973.67"/>
    </edge>
    <edge id=":10_9" function="internal">
        <lane id=":10_9_0" index="0" speed="3.65" length="3.23" shape="24844.86,14973.67 24844.25,14973.02 24844.39,14972.14 24845.30,14971.02"/>
    </edge>
    <edge id=":10_3" function="internal">
        <lane id=":10_3_0" index="0" speed="13.89" length="12.44" shape="24833.15,14969.98 24836.39,14970.96 24839.23,14971.60 24842.06,14971.68 24845.30,14971.02"/>
    </edge>
    <edge id=":10_4" function="internal">
        <lane id=":10_4_0" index="0" speed="7.50" length="4.15" shape="24833.15,14969.98 24836.91,14971.72"/>
    </edge>
    <edge id=":10_5" function="internal">
        <lane id=":10_5_0" index="0" speed="3.65" length="1.44" shape="24833.15,14969.98 24834.06,14971.09"/>
    </edge>
    <edge id=":10_10" function="internal">
        <lane id=":10_10_0" index="0" speed="7.50" length="11.72" shape="24836.91,14971.72 24837.34,14971.92 24839.36,14974.54 24839.21,14977.85 24836.87,14981.84"/>
    </edge>
    <edge id=":10_11" function="internal">
        <lane id=":10_11_0" index="0" speed="3.65" length="3.23" shape="24834.06,14971.09 24834.21,14971.97 24833.60,14972.62 24832.22,14973.04"/>
    </edge>
    <edge id=":10_6" function="internal">
        <lane id=":10_6_0" index="0" speed="5.85" length="9.12" shape="24834.36,14979.86 24835.70,14977.57 24835.79,14975.66 24834.63,14974.15 24832.22,14973.04"/>
    </edge>
    <edge id=":10_7" function="internal">
        <lane id=":10_7_0" index="0" speed="13.89" length="14.29" shape="24834.36,14979.86 24836.71,14977.03 24839.20,14974.52 24842.01,14972.47 24845.30,14971.02"/>
    </edge>
    <edge id=":10_8" function="internal">
        <lane id=":10_8_0" index="0" speed="3.65" length="1.44" shape="24834.36,14979.86 24835.73,14979.41"/>
    </edge>
    <edge id=":10_12" function="internal">
        <lane id=":10_12_0" index="0" speed="3.65" length="3.23" shape="24835.73,14979.41 24836.61,14979.60 24836.99,14980.40 24836.87,14981.84"/>
    </edge>
    <edge id=":1025_0" function="internal">
        <lane id=":1025_0_0" index="0" speed="6.87" length="7.46" shape="35900.42,25482.21 35898.56,25481.48 35896.78,25481.34 35895.09,25481.81 35893.49,25482.89"/>
    </edge>
    <edge id=":1025_1" function="internal">
        <lane id=":1025_1_0" index="0" speed="8.10" length="11.53" shape="35900.42,25482.21 35897.95,25480.41 35896.40,25478.20 35895.76,25475.56 35896.05,25472.52"/>
    </edge>
    <edge id=":1025_2" function="internal">
        <lane id=":1025_2_0" index="0" speed="3.65" length="1.44" shape="35900.42,25482.21 35899.75,25480.94"/>
    </edge>
    <edge id=":1025_9" function="internal">
        <lane id=":1025_9_0" index="0" speed="3.65" length="3.23" shape="35899.75,25480.94 35899.78,25480.04 35900.51,25479.53 35901.95,25479.40"/>
    </edge>
    <edge id=":1025_3" function="internal">
        <lane id=":1025_3_0" index="0" speed="6.58" length="7.34" shape="35899.17,25473.23 35898.99,25475.17 35899.39,25476.85 35900.38,25478.26 35901.95,25479.40"/>
    </edge>
    <edge id=":1025_4" function="internal">
        <lane id=":1025_4_0" index="0" speed="13.39" length="11.47" shape="35899.17,25473.23 35898.34,25476.33 35897.32,25478.65 35895.81,25480.67 35893.49,25482.89"/>
    </edge>
    <edge id=":1025_5" function="internal">
        <lane id=":1025_5_0" index="0" speed="3.65" length="1.44" shape="35899.17,25473.23 35898.12,25474.22"/>
    </edge>
    <edge id=":1025_10" function="internal">
        <lane id=":1025_10_0" index="0" speed="3.65" length="3.23" shape="35898.12,25474.22 35897.25,25474.44 35896.56,25473.87 35896.05,25472.52"/>
    </edge>
    <edge id=":1025_6" function="internal">
        <lane id=":1025_6_0" index="0" speed="12.22" length="9.50" shape="35891.38,25480.49 35893.42,25478.59 35894.62,25477.05 35895.37,25475.23 35896.05,25472.52"/>
    </edge>
    <edge id=":1025_7" function="internal">
        <lane id=":1025_7_0" index="0" speed="8.35" length="3.27" shape="35891.38,25480.49 35893.84,25478.83 35894.13,25478.75"/>
    </edge>
    <edge id=":1025_8" function="internal">
        <lane id=":1025_8_0" index="0" speed="3.65" length="1.44" shape="35891.38,25480.49 35892.81,25480.29"/>
    </edge>
    <edge id=":1025_11" function="internal">
        <lane id=":1025_11_0" index="0" speed="8.35" length="8.13" shape="35894.13,25478.75 35896.42,25478.10 35899.12,25478.29 35901.95,25479.40"/>
    </edge>
    <edge id=":1025_12" function="internal">
        <lane id=":1025_12_0" index="0" speed="3.65" length="3.23" shape="35892.81,25480.29 35893.63,25480.63 35893.86,25481.49 35893.49,25482.89"/>
    </edge>
    <edge id=":103_0" function="internal">
        <lane id=":103_0_0" index="0" speed="5.47" length="9.82" shape="19838.12,18666.98 19835.71,18664.93 19833.99,18664.62 19832.95,18666.03 19832.59,18669.16"/>
    </edge>
    <edge id=":103_1" function="internal">
        <lane id=":103_1_0" index="0" speed="12.34" length="20.60" shape="19838.12,18666.98 19834.40,18662.29 19832.11,18657.62 19831.25,18652.97 19831.82,18648.32"/>
    </edge>
    <edge id=":103_2" function="internal">
        <lane id=":103_2_0" index="0" speed="7.58" length="18.86" shape="19838.12,18666.98 19834.39,18662.04 19833.67,18658.31 19835.95,18655.77 19841.23,18654.43"/>
    </edge>
    <edge id=":103_3" function="internal">
        <lane id=":103_3_0" index="0" speed="3.65" length="1.44" shape="19838.12,18666.98 19837.87,18665.56"/>
    </edge>
    <edge id=":103_16" function="internal">
        <lane id=":103_16_0" index="0" speed="3.65" length="3.23" shape="19837.87,18665.56 19838.18,18664.72 19839.04,18664.46 19840.44,18664.78"/>
    </edge>
    <edge id=":103_4" function="internal">
        <lane id=":103_4_0" index="0" speed="5.82" length="10.48" shape="19841.58,18657.61 19838.82,18658.35 19837.71,18659.79 19838.25,18661.94 19840.44,18664.78"/>
    </edge>
    <edge id=":103_5" function="internal">
        <lane id=":103_5_0" index="0" speed="8.90" length="16.29" shape="19841.58,18657.61 19837.66,18658.70 19834.86,18660.99 19833.17,18664.48 19832.59,18669.16"/>
    </edge>
    <edge id=":103_6" function="internal">
        <lane id=":103_6_0" index="0" speed="7.77" length="17.16" shape="19841.58,18657.61 19836.20,18657.55 19832.78,18655.98 19831.32,18652.91 19831.82,18648.32"/>
    </edge>
    <edge id=":103_7" function="internal">
        <lane id=":103_7_0" index="0" speed="3.65" length="1.44" shape="19841.58,18657.61 19840.30,18656.94"/>
    </edge>
    <edge id=":103_17" function="internal">
        <lane id=":103_17_0" index="0" speed="3.65" length="3.23" shape="19840.30,18656.94 19839.82,18656.19 19840.13,18655.35 19841.23,18654.43"/>
    </edge>
    <edge id=":103_8" function="internal">
        <lane id=":103_8_0" index="0" speed="6.19" length="10.41" shape="19834.90,18649.18 19834.66,18651.80 19835.64,18653.55 19837.83,18654.43 19841.23,18654.43"/>
    </edge>
    <edge id=":103_9" function="internal">
        <lane id=":103_9_0" index="0" speed="11.35" length="17.31" shape="19834.90,18649.18 19834.46,18652.98 19835.24,18656.84 19837.23,18660.78 19840.44,18664.78"/>
    </edge>
    <edge id=":103_10" function="internal">
        <lane id=":103_10_0" index="0" speed="13.89" length="20.16" shape="19834.90,18649.18 19833.98,18653.63 19833.25,18659.10 19832.77,18664.61 19832.59,18669.16"/>
    </edge>
    <edge id=":103_11" function="internal">
        <lane id=":103_11_0" index="0" speed="3.65" length="1.44" shape="19834.90,18649.18 19833.81,18650.12"/>
    </edge>
    <edge id=":103_18" function="internal">
        <lane id=":103_18_0" index="0" speed="3.65" length="3.23" shape="19833.81,18650.12 19832.93,18650.29 19832.27,18649.69 19831.82,18648.32"/>
    </edge>
    <edge id=":103_12" function="internal">
        <lane id=":103_12_0" index="0" speed="13.89" length="21.01" shape="19829.39,18669.15 19829.59,18664.47 19830.11,18658.67 19830.88,18652.91 19831.82,18648.32"/>
    </edge>
    <edge id=":103_13" function="internal">
        <lane id=":103_13_0" index="0" speed="10.05" length="21.04" shape="19829.39,18669.15 19830.15,18663.19 19832.37,18658.75 19836.07,18655.83 19841.23,18654.43"/>
    </edge>
    <edge id=":103_14" function="internal">
        <lane id=":103_14_0" index="0" speed="7.44" length="19.64" shape="19829.39,18669.15 19830.10,18662.88 19832.18,18660.05 19835.63,18660.69 19840.44,18664.78"/>
    </edge>
    <edge id=":103_15" function="internal">
        <lane id=":103_15_0" index="0" speed="3.65" length="1.44" shape="19829.39,18669.15 19830.20,18667.96"/>
    </edge>
    <edge id=":103_19" function="internal">
        <lane id=":103_19_0" index="0" speed="3.65" length="3.23" shape="19830.20,18667.96 19831.00,18667.56 19831.80,18667.96 19832.59,18669.16"/>
    </edge>
    <edge id=":105_0" function="internal">
        <lane id=":105_0_0" index="0" speed="7.19" length="11.07" shape="26017.10,20779.40 26015.32,20776.36 26013.31,20774.51 26011.09,20773.84 26008.65,20774.36"/>
    </edge>
    <edge id=":105_1" function="internal">
        <lane id=":105_1_0" index="0" speed="11.81" length="7.45" shape="26017.10,20779.40 26015.55,20774.70 26015.40,20772.20"/>
    </edge>
    <edge id=":105_2" function="internal">
        <lane id=":105_2_0" index="0" speed="7.40" length="7.12" shape="26017.10,20779.40 26015.61,20774.57 26016.03,20772.55"/>
    </edge>
    <edge id=":105_3" function="internal">
        <lane id=":105_3_0" index="0" speed="3.65" length="1.44" shape="26017.10,20779.40 26017.33,20777.97"/>
    </edge>
    <edge id=":105_16" function="internal">
        <lane id=":105_16_0" index="0" speed="11.81" length="11.53" shape="26015.40,20772.20 26015.28,20770.13 26016.28,20765.68 26018.57,20761.36"/>
    </edge>
    <edge id=":105_17" function="internal">
        <lane id=":105_17_0" index="0" speed="7.40" length="9.71" shape="26016.03,20772.55 26016.30,20771.28 26019.17,20769.55 26024.22,20769.36"/>
    </edge>
    <edge id=":105_18" function="internal">
        <lane id=":105_18_0" index="0" speed="3.65" length="3.23" shape="26017.33,20777.97 26017.88,20777.28 26018.78,20777.30 26020.01,20778.06"/>
    </edge>
    <edge id=":105_4" function="internal">
        <lane id=":105_4_0" index="0" speed="5.66" length="9.24" shape="26023.92,20772.54 26021.14,20772.65 26019.56,20773.60 26019.19,20775.40 26020.01,20778.06"/>
    </edge>
    <edge id=":105_5" function="internal">
        <lane id=":105_5_0" index="0" speed="13.89" length="15.52" shape="26023.92,20772.54 26020.08,20772.35 26016.14,20772.52 26012.27,20773.17 26008.65,20774.36"/>
    </edge>
    <edge id=":105_6" function="internal">
        <lane id=":105_6_0" index="0" speed="7.43" length="3.79" shape="26023.92,20772.54 26020.22,20771.69"/>
    </edge>
    <edge id=":105_7" function="internal">
        <lane id=":105_7_0" index="0" speed="3.65" length="1.44" shape="26023.92,20772.54 26022.80,20771.63"/>
    </edge>
    <edge id=":105_19" function="internal">
        <lane id=":105_19_0" index="0" speed="7.43" length="12.98" shape="26020.22,20771.69 26019.00,20771.41 26016.47,20769.16 26016.33,20765.81 26018.57,20761.36"/>
    </edge>
    <edge id=":105_20" function="internal">
        <lane id=":105_20_0" index="0" speed="3.65" length="3.23" shape="26022.80,20771.63 26022.48,20770.80 26022.95,20770.04 26024.22,20769.36"/>
    </edge>
    <edge id=":105_8" function="internal">
        <lane id=":105_8_0" index="0" speed="5.71" length="9.31" shape="26021.21,20763.17 26019.97,20765.63 26020.06,20767.49 26021.48,20768.73 26024.22,20769.36"/>
    </edge>
    <edge id=":105_9" function="internal">
        <lane id=":105_9_0" index="0" speed="10.77" length="15.66" shape="26021.21,20763.17 26019.32,20766.74 26018.50,20770.41 26018.72,20774.18 26020.01,20778.06"/>
    </edge>
    <edge id=":105_10" function="internal">
        <lane id=":105_10_0" index="0" speed="13.89" length="16.99" shape="26021.21,20763.17 26018.70,20766.38 26015.59,20769.56 26012.15,20772.35 26008.65,20774.36"/>
    </edge>
    <edge id=":105_11" function="internal">
        <lane id=":105_11_0" index="0" speed="3.65" length="1.32" shape="26021.21,20763.17 26019.98,20763.66"/>
    </edge>
    <edge id=":105_21" function="internal">
        <lane id=":105_21_0" index="0" speed="3.65" length="3.35" shape="26019.98,20763.66 26019.87,20763.71 26018.99,20763.58 26018.55,20762.80 26018.57,20761.36"/>
    </edge>
    <edge id=":105_12" function="internal">
        <lane id=":105_12_0" index="0" speed="13.89" length="15.25" shape="26007.37,20771.43 26010.65,20769.59 26013.63,20767.19 26016.27,20764.39 26018.57,20761.36"/>
    </edge>
    <edge id=":105_13" function="internal">
        <lane id=":105_13_0" index="0" speed="13.89" length="17.12" shape="26007.37,20771.43 26011.23,20770.20 26015.65,20769.47 26020.13,20769.20 26024.22,20769.36"/>
    </edge>
    <edge id=":105_14" function="internal">
        <lane id=":105_14_0" index="0" speed="8.56" length="4.37" shape="26007.37,20771.43 26011.15,20770.54 26011.62,20770.65"/>
    </edge>
    <edge id=":105_15" function="internal">
        <lane id=":105_15_0" index="0" speed="3.65" length="1.44" shape="26007.37,20771.43 26008.79,20771.68"/>
    </edge>
    <edge id=":105_22" function="internal">
        <lane id=":105_22_0" index="0" speed="8.56" length="11.76" shape="26011.62,20770.65 26014.52,20771.35 26017.47,20773.85 26020.01,20778.06"/>
    </edge>
    <edge id=":105_23" function="internal">
        <lane id=":105_23_0" index="0" speed="3.65" length="3.23" shape="26008.79,20771.68 26009.47,20772.26 26009.43,20773.15 26008.65,20774.36"/>
    </edge>
    <edge id=":115_0" function="internal">
        <lane id=":115_0_0" index="0" speed="6.07" length="8.05" shape="28242.59,19748.48 28244.80,19748.75 28246.35,19749.66 28247.25,19751.23 28247.49,19753.44"/>
    </edge>
    <edge id=":115_1" function="internal">
        <lane id=":115_1_0" index="0" speed="3.90" length="2.68" shape="28244.29,19753.33 28244.21,19752.59 28243.91,19752.07 28243.40,19751.77 28242.66,19751.68"/>
    </edge>
    <edge id=":117_0" function="internal">
        <lane id=":117_0_0" index="0" speed="13.89" length="1.04" shape="34814.49,18694.19 34814.49,18694.50 34814.48,18694.71 34814.44,18694.92 34814.38,18695.22"/>
    </edge>
    <edge id=":117_1" function="internal">
        <lane id=":117_1_0" index="0" speed="13.89" length="0.35" shape="34811.25,18694.54 34811.27,18694.44 34811.28,18694.37 34811.29,18694.30 34811.29,18694.20"/>
    </edge>
    <edge id=":119_0" function="internal">
        <lane id=":119_0_0" index="0" speed="6.17" length="10.87" shape="33185.24,22995.01 33183.27,22997.57 33181.26,22998.47 33179.19,22997.70 33177.07,22995.26"/>
    </edge>
    <edge id=":119_1" function="internal">
        <lane id=":119_1_0" index="0" speed="3.95" length="3.62" shape="33179.74,22993.50 33180.45,22994.32 33181.14,22994.57 33181.81,22994.27 33182.47,22993.42"/>
    </edge>
    <edge id=":123_0" function="internal">
        <lane id=":123_0_0" index="0" speed="6.08" length="9.14" shape="32360.19,21750.66 32359.09,21748.32 32359.12,21746.34 32360.28,21744.74 32362.57,21743.52"/>
    </edge>
    <edge id=":123_1" function="internal">
        <lane id=":123_1_0" index="0" speed="3.91" length="3.05" shape="32363.66,21746.53 32362.90,21746.93 32362.51,21747.47 32362.50,21748.13 32362.87,21748.91"/>
    </edge>
    <edge id=":1235_0" function="internal">
        <lane id=":1235_0_0" index="0" speed="7.87" length="2.36" shape="39854.88,14501.32 39854.28,14500.97 39853.89,14500.68 39853.58,14500.31 39853.20,14499.73"/>
    </edge>
    <edge id=":1235_1" function="internal">
        <lane id=":1235_1_0" index="0" speed="13.89" length="0.79" shape="39855.89,14498.00 39856.01,14498.19 39856.12,14498.31 39856.25,14498.41 39856.45,14498.53"/>
    </edge>
    <edge id=":1237_0" function="internal">
        <lane id=":1237_0_0" index="0" speed="3.96" length="3.70" shape="38778.70,11274.98 38778.42,11273.92 38777.90,11273.38 38777.16,11273.37 38776.18,11273.89"/>
    </edge>
    <edge id=":1237_1" function="internal">
        <lane id=":1237_1_0" index="0" speed="6.18" length="11.10" shape="38774.31,11271.30 38777.23,11269.73 38779.47,11269.76 38781.01,11271.37 38781.88,11274.57"/>
    </edge>
    <edge id=":1242_0" function="internal">
        <lane id=":1242_0_0" index="0" speed="10.51" length="14.31" shape="12311.71,15807.86 12307.18,15809.45 12303.75,15811.26 12301.42,15813.28 12300.20,15815.52"/>
    </edge>
    <edge id=":1242_1" function="internal">
        <lane id=":1242_1_0" index="0" speed="10.02" length="10.03" shape="12311.71,15807.86 12306.00,15808.73 12301.84,15807.85"/>
    </edge>
    <edge id=":1242_2" function="internal">
        <lane id=":1242_2_0" index="0" speed="7.41" length="9.06" shape="12311.71,15807.86 12305.76,15808.88 12302.92,15807.83"/>
    </edge>
    <edge id=":1242_3" function="internal">
        <lane id=":1242_3_0" index="0" speed="3.65" length="1.44" shape="12311.71,15807.86 12310.33,15807.43"/>
    </edge>
    <edge id=":1242_16" function="internal">
        <lane id=":1242_16_0" index="0" speed="10.02" length="10.91" shape="12301.84,15807.85 12301.24,15807.73 12297.45,15804.85 12294.61,15800.09"/>
    </edge>
    <edge id=":1242_17" function="internal">
        <lane id=":1242_17_0" index="0" speed="7.41" length="9.94" shape="12302.92,15807.83 12302.51,15807.68 12301.95,15804.26 12304.09,15798.62"/>
    </edge>
    <edge id=":1242_18" function="internal">
        <lane id=":1242_18_0" index="0" speed="3.65" length="3.23" shape="12310.33,15807.43 12309.72,15806.77 12309.88,15805.89 12310.81,15804.79"/>
    </edge>
    <edge id=":1242_4" function="internal">
        <lane id=":1242_4_0" index="0" speed="5.49" length="9.67" shape="12306.93,15800.08 12305.85,15802.96 12306.13,15804.70 12307.79,15805.31 12310.81,15804.79"/>
    </edge>
    <edge id=":1242_5" function="internal">
        <lane id=":1242_5_0" index="0" speed="13.89" length="16.86" shape="12306.93,15800.08 12305.11,15803.70 12303.23,15807.67 12301.51,15811.70 12300.20,15815.52"/>
    </edge>
    <edge id=":1242_6" function="internal">
        <lane id=":1242_6_0" index="0" speed="7.45" length="5.43" shape="12306.93,15800.08 12303.91,15804.59"/>
    </edge>
    <edge id=":1242_7" function="internal">
        <lane id=":1242_7_0" index="0" speed="3.65" length="1.44" shape="12306.93,15800.08 12305.67,15800.79"/>
    </edge>
    <edge id=":1242_19" function="internal">
        <lane id=":1242_19_0" index="0" speed="7.45" length="13.27" shape="12303.91,15804.59 12303.60,15805.06 12300.44,15806.71 12297.44,15805.06 12294.61,15800.09"/>
    </edge>
    <edge id=":1242_20" function="internal">
        <lane id=":1242_20_0" index="0" speed="3.65" length="3.23" shape="12305.67,15800.79 12304.78,15800.77 12304.25,15800.05 12304.09,15798.62"/>
    </edge>
    <edge id=":1242_8" function="internal">
        <lane id=":1242_8_0" index="0" speed="5.61" length="9.89" shape="12297.56,15798.86 12299.04,15801.43 12300.62,15802.24 12302.30,15801.31 12304.09,15798.62"/>
    </edge>
    <edge id=":1242_9" function="internal">
        <lane id=":1242_9_0" index="0" speed="8.86" length="16.18" shape="12297.56,15798.86 12299.75,15802.51 12302.69,15804.71 12306.37,15805.47 12310.81,15804.79"/>
    </edge>
    <edge id=":1242_10" function="internal">
        <lane id=":1242_10_0" index="0" speed="13.89" length="17.10" shape="12297.56,15798.86 12298.98,15802.74 12300.12,15807.12 12300.64,15811.54 12300.20,15815.52"/>
    </edge>
    <edge id=":1242_11" function="internal">
        <lane id=":1242_11_0" index="0" speed="3.65" length="1.30" shape="12297.56,15798.86 12297.31,15800.14"/>
    </edge>
    <edge id=":1242_21" function="internal">
        <lane id=":1242_21_0" index="0" speed="3.65" length="3.37" shape="12297.31,15800.14 12297.28,15800.28 12296.70,15800.95 12295.81,15800.89 12294.61,15800.09"/>
    </edge>
    <edge id=":1242_12" function="internal">
        <lane id=":1242_12_0" index="0" speed="13.89" length="15.02" shape="12297.12,15814.63 12297.58,15810.98 12297.10,15807.29 12296.00,15803.63 12294.61,15800.09"/>
    </edge>
    <edge id=":1242_13" function="internal">
        <lane id=":1242_13_0" index="0" speed="13.89" length="17.48" shape="12297.12,15814.63 12298.47,15810.72 12300.27,15806.49 12302.23,15802.32 12304.09,15798.62"/>
    </edge>
    <edge id=":1242_14" function="internal">
        <lane id=":1242_14_0" index="0" speed="11.58" length="3.76" shape="12297.12,15814.63 12298.67,15811.62 12298.94,15811.36"/>
    </edge>
    <edge id=":1242_15" function="internal">
        <lane id=":1242_15_0" index="0" speed="3.65" length="1.44" shape="12297.12,15814.63 12298.22,15813.70"/>
    </edge>
    <edge id=":1242_22" function="internal">
        <lane id=":1242_22_0" index="0" speed="11.58" length="13.75" shape="12298.94,15811.36 12301.47,15808.98 12305.51,15806.70 12310.81,15804.79"/>
    </edge>
    <edge id=":1242_23" function="internal">
        <lane id=":1242_23_0" index="0" speed="3.65" length="3.23" shape="12298.22,15813.70 12299.10,15813.53 12299.76,15814.14 12300.20,15815.52"/>
    </edge>
    <edge id=":1246_0" function="internal">
        <lane id=":1246_0_0" index="0" speed="13.89" length="13.97" shape="9742.98,17441.08 9739.47,17440.36 9736.11,17439.85 9732.73,17439.48 9729.15,17439.21"/>
    </edge>
    <edge id=":1246_1" function="internal">
        <lane id=":1246_1_0" index="0" speed="9.77" length="3.49" shape="9742.98,17441.08 9739.84,17439.82 9739.76,17439.75"/>
    </edge>
    <edge id=":1246_2" function="internal">
        <lane id=":1246_2_0" index="0" speed="3.65" length="1.44" shape="9742.98,17441.08 9741.99,17440.03"/>
    </edge>
    <edge id=":1246_9" function="internal">
        <lane id=":1246_9_0" index="0" speed="9.77" length="11.10" shape="9739.76,17439.75 9737.34,17437.63 9735.47,17434.50 9734.23,17430.45"/>
    </edge>
    <edge id=":1246_10" function="internal">
        <lane id=":1246_10_0" index="0" speed="3.65" length="3.23" shape="9741.99,17440.03 9741.78,17439.16 9742.35,17438.47 9743.70,17437.96"/>
    </edge>
    <edge id=":1246_3" function="internal">
        <lane id=":1246_3_0" index="0" speed="8.52" length="10.93" shape="9737.36,17429.81 9738.30,17432.95 9739.66,17435.36 9741.47,17437.03 9743.70,17437.96"/>
    </edge>
    <edge id=":1246_4" function="internal">
        <lane id=":1246_4_0" index="0" speed="7.61" length="15.33" shape="9737.36,17429.81 9737.62,17434.18 9736.34,17437.20 9733.52,17438.88 9729.15,17439.21"/>
    </edge>
    <edge id=":1246_5" function="internal">
        <lane id=":1246_5_0" index="0" speed="3.65" length="1.44" shape="9737.36,17429.81 9736.82,17431.14"/>
    </edge>
    <edge id=":1246_11" function="internal">
        <lane id=":1246_11_0" index="0" speed="3.65" length="3.23" shape="9736.82,17431.14 9736.11,17431.69 9735.25,17431.46 9734.23,17430.45"/>
    </edge>
    <edge id=":1246_6" function="internal">
        <lane id=":1246_6_0" index="0" speed="6.00" length="9.08" shape="9729.36,17436.02 9731.95,17435.82 9733.62,17434.83 9734.38,17433.04 9734.23,17430.45"/>
    </edge>
    <edge id=":1246_7" function="internal">