<?xml version="1.0" encoding="UTF-8"?>

<!-- generated on 2025-04-02 03:34:27 by Eclipse SUMO netgenerate Version 1.22.0
<netgenerateConfiguration xmlns:xsi="http://www.w3.org/2001/XMLSchema-instance" xsi:noNamespaceSchemaLocation="http://sumo.dlr.de/xsd/netgenerateConfiguration.xsd">

    <random_network>
        <rand value="true"/>
        <rand.iterations value="11"/>
        <rand.max-distance value="2642.163296330146"/>
        <rand.min-distance value="790.5044679529922"/>
        <rand.min-angle value="50.17377915872039"/>
        <rand.neighbor-dist1 value="1.0"/>
        <rand.neighbor-dist2 value="10.0"/>
        <rand.neighbor-dist3 value="0.0"/>
        <rand.neighbor-dist4 value="1.0"/>
        <rand.neighbor-dist5 value="0.0"/>
        <rand.neighbor-dist6 value="0.0"/>
    </random_network>

    <output>
        <output-file value="configs/rand-configs/rand1.net.xml"/>
    </output>

    <tls_building>
        <tls.guess value="true"/>
        <tls.guess.threshold value="0"/>
    </tls_building>

</netgenerateConfiguration>
-->

<net version="1.20" junctionCornerDetail="5" limitTurnSpeed="5.50" xmlns:xsi="http://www.w3.org/2001/XMLSchema-instance" xsi:noNamespaceSchemaLocation="http://sumo.dlr.de/xsd/net_file.xsd">

    <location netOffset="1579.39,2372.90" convBoundary="0.00,0.00,4489.38,6432.18" origBoundary="-1579.39,-2372.90,2909.99,4059.28" projParameter="!"/>

    <edge id=":1_0" function="internal">
        <lane id=":1_0_0" index="0" speed="5.98" length="9.08" shape="1577.92,2381.19 1577.51,2378.62 1576.38,2377.05 1574.53,2376.47 1571.96,2376.88"/>
    </edge>
    <edge id=":1_1" function="internal">
        <lane id=":1_1_0" index="0" speed="13.89" length="14.86" shape="1577.92,2381.19 1577.78,2377.47 1577.47,2373.78 1576.95,2370.12 1576.20,2366.47"/>
    </edge>
    <edge id=":1_2" function="internal">
        <lane id=":1_2_0" index="0" speed="8.09" length="4.36" shape="1577.92,2381.19 1578.41,2376.86"/>
    </edge>
    <edge id=":1_3" function="internal">
        <lane id=":1_3_0" index="0" speed="3.65" length="1.44" shape="1577.92,2381.19 1578.70,2379.98"/>
    </edge>
    <edge id=":1_16" function="internal">
        <lane id=":1_16_0" index="0" speed="8.09" length="10.76" shape="1578.41,2376.86 1580.06,2373.81 1582.87,2372.05 1586.82,2371.58"/>
    </edge>
    <edge id=":1_17" function="internal">
        <lane id=":1_17_0" index="0" speed="3.65" length="3.23" shape="1578.70,2379.98 1579.49,2379.57 1580.30,2379.96 1581.12,2381.14"/>
    </edge>
    <edge id=":1_4" function="internal">
        <lane id=":1_4_0" index="0" speed="6.62" length="9.76" shape="1586.70,2374.78 1584.22,2375.09 1582.46,2376.26 1581.43,2378.28 1581.12,2381.14"/>
    </edge>
    <edge id=":1_5" function="internal">
        <lane id=":1_5_0" index="0" speed="13.89" length="14.95" shape="1586.70,2374.78 1582.96,2374.82 1579.25,2375.20 1575.57,2375.90 1571.96,2376.88"/>
    </edge>
    <edge id=":1_6" function="internal">
        <lane id=":1_6_0" index="0" speed="9.03" length="3.93" shape="1586.70,2374.78 1582.82,2374.13"/>
    </edge>
    <edge id=":1_7" function="internal">
        <lane id=":1_7_0" index="0" speed="3.65" length="1.44" shape="1586.70,2374.78 1585.53,2373.93"/>
    </edge>
    <edge id=":1_18" function="internal">
        <lane id=":1_18_0" index="0" speed="9.03" length="10.59" shape="1582.82,2374.13 1579.78,2372.54 1577.57,2369.98 1576.20,2366.47"/>
    </edge>
    <edge id=":1_19" function="internal">
        <lane id=":1_19_0" index="0" speed="3.65" length="3.23" shape="1585.53,2373.93 1585.16,2373.12 1585.59,2372.33 1586.82,2371.58"/>
    </edge>
    <edge id=":1_8" function="internal">
        <lane id=":1_8_0" index="0" speed="7.70" length="10.32" shape="1579.31,2365.72 1580.28,2368.20 1581.86,2370.00 1584.04,2371.12 1586.82,2371.58"/>
    </edge>
    <edge id=":1_9" function="internal">
        <lane id=":1_9_0" index="0" speed="13.89" length="15.56" shape="1579.31,2365.72 1580.07,2369.48 1580.62,2373.38 1580.97,2377.31 1581.12,2381.14"/>
    </edge>
    <edge id=":1_10" function="internal">
        <lane id=":1_10_0" index="0" speed="8.41" length="4.08" shape="1579.31,2365.72 1579.59,2369.52 1579.50,2369.77"/>
    </edge>
    <edge id=":1_11" function="internal">
        <lane id=":1_11_0" index="0" speed="3.65" length="1.44" shape="1579.31,2365.72 1578.81,2367.07"/>
    </edge>
    <edge id=":1_20" function="internal">
        <lane id=":1_20_0" index="0" speed="8.41" length="10.92" shape="1579.50,2369.77 1578.46,2372.64 1575.92,2375.09 1571.96,2376.88"/>
    </edge>
    <edge id=":1_21" function="internal">
        <lane id=":1_21_0" index="0" speed="3.65" length="3.23" shape="1578.81,2367.07 1578.13,2367.65 1577.26,2367.45 1576.20,2366.47"/>
    </edge>
    <edge id=":1_12" function="internal">
        <lane id=":1_12_0" index="0" speed="7.00" length="10.09" shape="1571.01,2373.82 1573.76,2372.61 1575.54,2370.98 1576.35,2368.93 1576.20,2366.47"/>
    </edge>
    <edge id=":1_13" function="internal">
        <lane id=":1_13_0" index="0" speed="13.89" length="16.03" shape="1571.01,2373.82 1574.79,2372.82 1578.83,2372.07 1582.91,2371.64 1586.82,2371.58"/>
    </edge>
    <edge id=":1_14" function="internal">
        <lane id=":1_14_0" index="0" speed="7.59" length="4.78" shape="1571.01,2373.82 1575.37,2373.12 1575.72,2373.23"/>
    </edge>
    <edge id=":1_15" function="internal">
        <lane id=":1_15_0" index="0" speed="3.65" length="1.44" shape="1571.01,2373.82 1572.39,2374.23"/>
    </edge>
    <edge id=":1_22" function="internal">
        <lane id=":1_22_0" index="0" speed="7.59" length="10.63" shape="1575.72,2373.23 1578.51,2374.11 1580.42,2376.78 1581.12,2381.14"/>
    </edge>
    <edge id=":1_23" function="internal">
        <lane id=":1_23_0" index="0" speed="3.65" length="3.23" shape="1572.39,2374.23 1573.01,2374.88 1572.87,2375.76 1571.96,2376.88"/>
    </edge>
    <edge id=":10_0" function="internal">
        <lane id=":10_0_0" index="0" speed="6.14" length="6.42" shape="-1.46,2865.58 -1.33,2863.88 -0.72,2862.50 0.36,2861.45 1.91,2860.74"/>
    </edge>
    <edge id=":10_1" function="internal">
        <lane id=":10_1_0" index="0" speed="3.94" length="2.14" shape="2.86,2863.79 2.34,2864.03 1.98,2864.38 1.78,2864.84 1.73,2865.41"/>
    </edge>
    <edge id=":12_0" function="internal">
        <lane id=":12_0_0" index="0" speed="13.89" length="0.14" shape="2198.67,474.74 2198.54,474.68"/>
    </edge>
    <edge id=":12_1" function="internal">
        <lane id=":12_1_0" index="0" speed="13.89" length="0.28" shape="2199.72,471.71 2199.98,471.81"/>
    </edge>
    <edge id=":2_0" function="internal">
        <lane id=":2_0_0" index="0" speed="6.27" length="12.23" shape="1009.49,6.38 1009.08,2.65 1010.02,0.48 1012.30,-0.14 1015.93,0.79"/>
    </edge>
    <edge id=":2_1" function="internal">
        <lane id=":2_1_0" index="0" speed="4.01" length="4.08" shape="1014.74,3.77 1013.53,3.46 1012.77,3.66 1012.46,4.39 1012.60,5.63"/>
    </edge>
    <edge id=":32_0" function="internal">
        <lane id=":32_0_0" index="0" speed="6.13" length="6.52" shape="2339.37,5266.58 2340.42,5267.96 2340.88,5269.41 2340.75,5270.93 2340.04,5272.51"/>
    </edge>
    <edge id=":32_1" function="internal">
        <lane id=":32_1_0" index="0" speed="3.93" length="2.17" shape="2337.32,5270.81 2337.56,5270.28 2337.61,5269.78 2337.45,5269.30 2337.10,5268.83"/>
    </edge>
    <edge id=":34_0" function="internal">
        <lane id=":34_0_0" index="0" speed="3.65" length="4.67" shape="3964.59,3716.19 3964.01,3717.51 3963.29,3718.04 3962.43,3717.78 3961.44,3716.73"/>
    </edge>
    <edge id=":36_0" function="internal">
        <lane id=":36_0_0" index="0" speed="3.65" length="4.67" shape="101.59,4709.14 100.85,4710.38 100.07,4710.82 99.25,4710.47 98.39,4709.31"/>
    </edge>
    <edge id=":50_0" function="internal">
        <lane id=":50_0_0" index="0" speed="3.65" length="4.67" shape="4490.03,1496.71 4490.80,1497.93 4490.84,1498.82 4490.15,1499.39 4488.73,1499.63"/>
    </edge>
    <edge id=":52_0" function="internal">
        <lane id=":52_0_0" index="0" speed="3.65" length="4.67" shape="1613.60,6433.03 1612.29,6433.62 1611.39,6433.53 1610.93,6432.77 1610.89,6431.33"/>
    </edge>
    <edge id=":6_0" function="internal">
        <lane id=":6_0_0" index="0" speed="6.72" length="3.75" shape="1613.19,4541.44 1612.44,4540.64 1612.03,4539.98 1611.85,4539.22 1611.79,4538.13"/>
    </edge>
    <edge id=":6_1" function="internal">
        <lane id=":6_1_0" index="0" speed="4.24" length="1.25" shape="1614.99,4538.08 1615.01,4538.44 1615.07,4538.69 1615.21,4538.91 1615.46,4539.18"/>
    </edge>
    <edge id=":8_0" function="internal">
        <lane id=":8_0_0" index="0" speed="3.93" length="2.21" shape="3746.90,2458.00 3746.72,2457.44 3746.41,2457.03 3745.96,2456.77 3745.38,2456.67"/>
    </edge>
    <edge id=":8_1" function="internal">
        <lane id=":8_1_0" index="0" speed="6.12" length="6.63" shape="3745.50,2453.47 3747.25,2453.78 3748.59,2454.55 3749.52,2455.77 3750.05,2457.46"/>
    </edge>

    <edge id="-11" from="10" to="1" priority="-1">
        <lane id="-11_0" index="0" speed="13.89" length="1642.92" shape="1.91,2860.74 1571.01,2373.82"/>
    </edge>
    <edge id="-13" from="12" to="2" priority="-1">
        <lane id="-13_0" index="0" speed="13.89" length="1274.02" shape="2198.54,474.68 1014.74,3.77"/>
    </edge>
    <edge id="-3" from="2" to="1" priority="-1">
        <lane id="-3_0" index="0" speed="13.89" length="2427.18" shape="1012.60,5.63 1579.31,2365.72"/>
    </edge>
    <edge id="-33" from="32" to="6" priority="-1">
        <lane id="-33_0" index="0" speed="13.89" length="1026.23" shape="2337.10,5268.83 1613.19,4541.44"/>
    </edge>
    <edge id="-35" from="34" to="8" priority="-1">
        <lane id="-35_0" index="0" speed="13.89" length="1276.88" shape="3961.44,3716.73 3746.90,2458.00"/>
    </edge>
    <edge id="-37" from="36" to="10" priority="-1">
        <lane id="-37_0" index="0" speed="13.89" length="1846.43" shape="98.39,4709.31 -1.46,2865.58"/>
    </edge>
    <edge id="-51" from="50" to="12" priority="-1">
        <lane id="-51_0" index="0" speed="13.89" length="2508.94" shape="4488.73,1499.63 2198.67,474.74"/>
    </edge>
    <edge id="-53" from="52" to="32" priority="-1">
        <lane id="-53_0" index="0" speed="13.89" length="1369.13" shape="1610.89,6431.33 2337.32,5270.81"/>
    </edge>
    <edge id="-7" from="6" to="1" priority="-1">
        <lane id="-7_0" index="0" speed="13.89" length="2157.20" shape="1611.79,4538.13 1577.92,2381.19"/>
    </edge>
    <edge id="-9" from="8" to="1" priority="-1">
        <lane id="-9_0" index="0" speed="13.89" length="2160.24" shape="3745.38,2456.67 1586.70,2374.78"/>
    </edge>
    <edge id="11" from="1" to="10" priority="-1">
        <lane id="11_0" index="0" speed="13.89" length="1642.92" shape="1571.96,2376.88 2.86,2863.79"/>
    </edge>
    <edge id="13" from="2" to="12" priority="-1">
        <lane id="13_0" index="0" speed="13.89" length="1274.02" shape="1015.93,0.79 2199.72,471.71"/>
    </edge>
    <edge id="3" from="1" to="2" priority="-1">
        <lane id="3_0" index="0" speed="13.89" length="2427.18" shape="1576.20,2366.47 1009.49,6.38"/>
    </edge>
    <edge id="33" from="6" to="32" priority="-1">
        <lane id="33_0" index="0" speed="13.89" length="1026.23" shape="1615.46,4539.18 2339.37,5266.58"/>
    </edge>
    <edge id="35" from="8" to="34" priority="-1">
        <lane id="35_0" index="0" speed="13.89" length="1276.88" shape="3750.05,2457.46 3964.59,3716.19"/>
    </edge>
    <edge id="37" from="10" to="36" priority="-1">
        <lane id="37_0" index="0" speed="13.89" length="1846.43" shape="1.73,2865.41 101.59,4709.14"/>
    </edge>
    <edge id="51" from="12" to="50" priority="-1">
        <lane id="51_0" index="0" speed="13.89" length="2508.94" shape="2199.98,471.81 4490.03,1496.71"/>
    </edge>
    <edge id="53" from="32" to="52" priority="-1">
        <lane id="53_0" index="0" speed="13.89" length="1369.13" shape="2340.04,5272.51 1613.60,6433.03"/>
    </edge>
    <edge id="7" from="1" to="6" priority="-1">
        <lane id="7_0" index="0" speed="13.89" length="2157.20" shape="1581.12,2381.14 1614.99,4538.08"/>
    </edge>
    <edge id="9" from="1" to="8" priority="-1">
        <lane id="9_0" index="0" speed="13.89" length="2160.24" shape="1586.82,2371.58 3745.50,2453.47"/>
    </edge>

    <tlLogic id="1" type="static" programID="0" offset="0">
        <phase duration="42" state="GGggrrrrGGggrrrr"/>
        <phase duration="3"  state="yyyyrrrryyyyrrrr"/>
        <phase duration="42" state="rrrrGGggrrrrGGgg"/>
        <phase duration="3"  state="rrrryyyyrrrryyyy"/>
    </tlLogic>

    <junction id="1" type="traffic_light" x="1579.39" y="2372.90" incLanes="-7_0 -9_0 -3_0 -11_0" intLanes=":1_0_0 :1_1_0 :1_16_0 :1_17_0 :1_4_0 :1_5_0 :1_18_0 :1_19_0 :1_8_0 :1_9_0 :1_20_0 :1_21_0 :1_12_0 :1_13_0 :1_22_0 :1_23_0" shape="1576.32,2381.22 1582.72,2381.12 1583.12,2378.42 1583.66,2377.49 1584.42,2376.83 1585.42,2376.46 1586.64,2376.38 1586.88,2369.98 1584.01,2369.38 1582.90,2368.73 1582.01,2367.84 1581.33,2366.71 1580.86,2365.35 1574.64,2366.84 1574.60,2369.18 1574.08,2370.15 1573.23,2370.99 1572.05,2371.71 1570.54,2372.29 1572.43,2378.41 1574.56,2378.19 1575.32,2378.52 1575.86,2379.13 1576.19,2380.03">
        <request index="0"  response="0000000000000000" foes="1000010000100000" cont="0"/>
        <request index="1"  response="0100000001000000" foes="0111110001100000" cont="0"/>
        <request index="2"  response="0100001101000000" foes="0110011111100000" cont="1"/>
        <request index="3"  response="0100001000010000" foes="0100001000010000" cont="1"/>
        <request index="4"  response="0000001000000000" foes="0100001000001000" cont="0"/>
        <request index="5"  response="0000011000000111" foes="1100011000000111" cont="0"/>
        <request index="6"  response="0011011000000110" foes="0111111000000110" cont="1"/>
        <request index="7"  response="0010000100000100" foes="0010000100000100" cont="1"/>
        <request index="8"  response="0000000000000000" foes="0010000010000100" cont="0"/>
        <request index="9"  response="0100000001000000" foes="0110000001111100" cont="0"/>
        <request index="10" response="0100000001000111" foes="1110000001100111" cont="1"/>
        <request index="11" response="0001000001000010" foes="0001000001000010" cont="1"/>
        <request index="12" response="0000000000000010" foes="0000100001000010" cont="0"/>
        <request index="13" response="0000011100000110" foes="0000011111000110" cont="0"/>
        <request index="14" response="0000011001110110" foes="0000011001111110" cont="1"/>
        <request index="15" response="0000010000100001" foes="0000010000100001" cont="1"/>
    </junction>
    <junction id="10" type="priority" x="0.00" y="2863.00" incLanes="-37_0 11_0" intLanes=":10_0_0 :10_1_0" shape="-3.06,2865.67 3.33,2865.32 1.43,2859.21 -1.18,2860.58 -2.07,2861.56 -2.68,2862.74 -3.01,2864.10">
        <request index="0" response="00" foes="00" cont="0"/>
        <request index="1" response="00" foes="00" cont="0"/>
    </junction>
    <junction id="12" type="priority" x="2199.23" y="473.23" incLanes="-51_0 13_0" intLanes=":12_0_0 :12_1_0" shape="2198.02,476.20 2200.63,470.35 2200.31,470.22 2197.95,476.17">
        <request index="0" response="00" foes="00" cont="0"/>
        <request index="1" response="00" foes="00" cont="0"/>
    </junction>
    <junction id="2" type="priority" x="1009.60" y="0.00" incLanes="3_0 -13_0" intLanes=":2_0_0 :2_1_0" shape="1007.93,6.75 1014.15,5.25 1016.52,-0.69 1013.09,-1.75 1010.47,-1.89 1008.64,-1.11 1007.60,0.59 1007.37,3.21">
        <request index="0" response="00" foes="00" cont="0"/>
        <request index="1" response="00" foes="00" cont="0"/>
    </junction>
    <junction id="32" type="priority" x="2340.03" y="5269.51" incLanes="33_0 -53_0" intLanes=":32_0_0 :32_1_0" shape="2340.50,5265.45 2335.97,5269.96 2341.39,5273.36 2342.49,5270.56 2342.52,5269.23 2342.20,5267.93 2341.52,5266.67">
        <request index="0" response="00" foes="00" cont="0"/>
        <request index="1" response="00" foes="00" cont="0"/>
    </junction>
    <junction id="34" type="priority" x="3963.02" y="3716.46" incLanes="35_0" intLanes=":34_0_0" shape="3963.02,3716.46 3966.17,3715.92 3963.02,3716.46">
        <request index="0" response="0" foes="0" cont="0"/>
    </junction>
    <junction id="36" type="priority" x="99.99" y="4709.23" incLanes="37_0" intLanes=":36_0_0" shape="99.99,4709.23 103.18,4709.05 99.99,4709.23">
        <request index="0" response="0" foes="0" cont="0"/>
    </junction>
    <junction id="50" type="priority" x="4489.38" y="1498.17" incLanes="51_0" intLanes=":50_0_0" shape="4489.38,1498.17 4490.69,1495.25 4489.38,1498.17">
        <request index="0" response="0" foes="0" cont="0"/>
    </junction>
    <junction id="52" type="priority" x="1612.24" y="6432.18" incLanes="53_0" intLanes=":52_0_0" shape="1612.24,6432.18 1614.96,6433.87 1612.24,6432.18">
        <request index="0" response="0" foes="0" cont="0"/>
    </junction>
    <junction id="6" type="priority" x="1613.41" y="4539.39" incLanes="-33_0 7_0" intLanes=":6_0_0 :6_1_0" shape="1612.06,4542.57 1616.59,4538.05 1610.19,4538.15 1610.32,4539.98 1610.51,4540.62 1610.83,4541.20 1611.34,4541.82">
        <request index="0" response="00" foes="00" cont="0"/>
        <request index="1" response="00" foes="00" cont="0"/>
    </junction>
    <junction id="8" type="priority" x="3748.04" y="2455.17" incLanes="-35_0 9_0" intLanes=":8_0_0 :8_1_0" shape="3745.32,2458.27 3751.63,2457.20 3750.57,2454.33 3749.68,2453.30 3748.55,2452.55 3747.17,2452.08 3745.56,2451.88">
        <request index="0" response="00" foes="00" cont="0"/>
        <request index="1" response="00" foes="00" cont="0"/>
    </junction>

    <junction id=":1_16_0" type="internal" x="1578.41" y="2376.86" incLanes=":1_2_0 -3_0" intLanes=":1_5_0 :1_6_0 :1_7_0 :1_8_0 :1_9_0 :1_13_0 :1_14_0"/>
    <junction id=":1_17_0" type="internal" x="1578.70" y="2379.98" incLanes=":1_3_0 -11_0 -3_0 -9_0" intLanes=":1_4_0 :1_9_0 :1_14_0"/>
    <junction id=":1_18_0" type="internal" x="1582.82" y="2374.13" incLanes=":1_6_0 -11_0" intLanes=":1_1_0 :1_2_0 :1_9_0 :1_10_0 :1_11_0 :1_12_0 :1_13_0"/>
    <junction id=":1_19_0" type="internal" x="1585.53" y="2373.93" incLanes=":1_7_0 -11_0 -3_0 -7_0" intLanes=":1_2_0 :1_8_0 :1_13_0"/>
    <junction id=":1_20_0" type="internal" x="1579.50" y="2369.77" incLanes=":1_10_0 -7_0" intLanes=":1_0_0 :1_1_0 :1_5_0 :1_6_0 :1_13_0 :1_14_0 :1_15_0"/>
    <junction id=":1_21_0" type="internal" x="1578.81" y="2367.07" incLanes=":1_11_0 -11_0 -7_0 -9_0" intLanes=":1_1_0 :1_6_0 :1_12_0"/>
    <junction id=":1_22_0" type="internal" x="1575.72" y="2373.23" incLanes=":1_14_0 -9_0" intLanes=":1_1_0 :1_2_0 :1_3_0 :1_4_0 :1_5_0 :1_9_0 :1_10_0"/>
    <junction id=":1_23_0" type="internal" x="1572.39" y="2374.23" incLanes=":1_15_0 -3_0 -7_0 -9_0" intLanes=":1_0_0 :1_5_0 :1_10_0"/>

    <connection from="-11" to="3" fromLane="0" toLane="0" via=":1_12_0" tl="1" linkIndex="12" dir="r" state="o"/>
    <connection from="-11" to="9" fromLane="0" toLane="0" via=":1_13_0" tl="1" linkIndex="13" dir="s" state="o"/>
    <connection from="-11" to="7" fromLane="0" toLane="0" via=":1_14_0" tl="1" linkIndex="14" dir="l" state="o"/>
    <connection from="-11" to="11" fromLane="0" toLane="0" via=":1_15_0" tl="1" linkIndex="15" dir="t" state="o"/>
    <connection from="-13" to="-3" fromLane="0" toLane="0" via=":2_1_0" dir="r" state="M"/>
    <connection from="-3" to="9" fromLane="0" toLane="0" via=":1_8_0" tl="1" linkIndex="8" dir="r" state="O"/>
    <connection from="-3" to="7" fromLane="0" toLane="0" via=":1_9_0" tl="1" linkIndex="9" dir="s" state="O"/>
    <connection from="-3" to="11" fromLane="0" toLane="0" via=":1_10_0" tl="1" linkIndex="10" dir="l" state="o"/>
    <connection from="-3" to="3" fromLane="0" toLane="0" via=":1_11_0" tl="1" linkIndex="11" dir="t" state="o"/>
    <connection from="-33" to="-7" fromLane="0" toLane="0" via=":6_0_0" dir="s" state="M"/>
    <connection from="-35" to="-9" fromLane="0" toLane="0" via=":8_0_0" dir="r" state="M"/>
    <connection from="-37" to="-11" fromLane="0" toLane="0" via=":10_0_0" dir="l" state="M"/>
    <connection from="-51" to="-13" fromLane="0" toLane="0" via=":12_0_0" dir="s" state="M"/>
    <connection from="-53" to="-33" fromLane="0" toLane="0" via=":32_1_0" dir="r" state="M"/>
    <connection from="-7" to="11" fromLane="0" toLane="0" via=":1_0_0" tl="1" linkIndex="0" dir="r" state="O"/>
    <connection from="-7" to="3" fromLane="0" toLane="0" via=":1_1_0" tl="1" linkIndex="1" dir="s" state="O"/>
    <connection from="-7" to="9" fromLane="0" toLane="0" via=":1_2_0" tl="1" linkIndex="2" dir="l" state="o"/>
    <connection from="-7" to="7" fromLane="0" toLane="0" via=":1_3_0" tl="1" linkIndex="3" dir="t" state="o"/>
    <connection from="-9" to="7" fromLane="0" toLane="0" via=":1_4_0" tl="1" linkIndex="4" dir="r" state="o"/>
    <connection from="-9" to="11" fromLane="0" toLane="0" via=":1_5_0" tl="1" linkIndex="5" dir="s" state="o"/>
    <connection from="-9" to="3" fromLane="0" toLane="0" via=":1_6_0" tl="1" linkIndex="6" dir="l" state="o"/>
    <connection from="-9" to="9" fromLane="0" toLane="0" via=":1_7_0" tl="1" linkIndex="7" dir="t" state="o"/>
    <connection from="11" to="37" fromLane="0" toLane="0" via=":10_1_0" dir="r" state="M"/>
    <connection from="13" to="51" fromLane="0" toLane="0" via=":12_1_0" dir="s" state="M"/>
    <connection from="3" to="13" fromLane="0" toLane="0" via=":2_0_0" dir="l" state="M"/>
    <connection from="33" to="53" fromLane="0" toLane="0" via=":32_0_0" dir="l" state="M"/>
    <connection from="35" to="-35" fromLane="0" toLane="0" via=":34_0_0" dir="t" state="M"/>
    <connection from="37" to="-37" fromLane="0" toLane="0" via=":36_0_0" dir="t" state="M"/>
    <connection from="51" to="-51" fromLane="0" toLane="0" via=":50_0_0" dir="t" state="M"/>
    <connection from="53" to="-53" fromLane="0" toLane="0" via=":52_0_0" dir="t" state="M"/>
    <connection from="7" to="33" fromLane="0" toLane="0" via=":6_1_0" dir="s" state="M"/>
    <connection from="9" to="35" fromLane="0" toLane="0" via=":8_1_0" dir="l" state="M"/>

    <connection from=":1_0" to="11" fromLane="0" toLane="0" dir="r" state="M"/>
    <connection from=":1_1" to="3" fromLane="0" toLane="0" dir="s" state="M"/>
    <connection from=":1_2" to="9" fromLane="0" toLane="0" via=":1_16_0" dir="l" state="m"/>
    <connection from=":1_16" to="9" fromLane="0" toLane="0" dir="l" state="M"/>
    <connection from=":1_3" to="7" fromLane="0" toLane="0" via=":1_17_0" dir="t" state="m"/>
    <connection from=":1_17" to="7" fromLane="0" toLane="0" dir="t" state="M"/>
    <connection from=":1_4" to="7" fromLane="0" toLane="0" dir="r" state="M"/>
    <connection from=":1_5" to="11" fromLane="0" toLane="0" dir="s" state="M"/>
    <connection from=":1_6" to="3" fromLane="0" toLane="0" via=":1_18_0" dir="l" state="m"/>
    <connection from=":1_18" to="3" fromLane="0" toLane="0" dir="l" state="M"/>
    <connection from=":1_7" to="9" fromLane="0" toLane="0" via=":1_19_0" dir="t" state="m"/>
    <connection from=":1_19" to="9" fromLane="0" toLane="0" dir="t" state="M"/>
    <connection from=":1_8" to="9" fromLane="0" toLane="0" dir="r" state="M"/>
    <connection from=":1_9" to="7" fromLane="0" toLane="0" dir="s" state="M"/>
    <connection from=":1_10" to="11" fromLane="0" toLane="0" via=":1_20_0" dir="l" state="m"/>
    <connection from=":1_20" to="11" fromLane="0" toLane="0" dir="l" state="M"/>
    <connection from=":1_11" to="3" fromLane="0" toLane="0" via=":1_21_0" dir="t" state="m"/>
    <connection from=":1_21" to="3" fromLane="0" toLane="0" dir="t" state="M"/>
    <connection from=":1_12" to="3" fromLane="0" toLane="0" dir="r" state="M"/>
    <connection from=":1_13" to="9" fromLane="0" toLane="0" dir="s" state="M"/>
    <connection from=":1_14" to="7" fromLane="0" toLane="0" via=":1_22_0" dir="l" state="m"/>
    <connection from=":1_22" to="7" fromLane="0" toLane="0" dir="l" state="M"/>
    <connection from=":1_15" to="11" fromLane="0" toLane="0" via=":1_23_0" dir="t" state="m"/>
    <connection from=":1_23" to="11" fromLane="0" toLane="0" dir="t" state="M"/>
    <connection from=":10_0" to="-11" fromLane="0" toLane="0" dir="l" state="M"/>
    <connection from=":10_1" to="37" fromLane="0" toLane="0" dir="r" state="M"/>
    <connection from=":12_0" to="-13" fromLane="0" toLane="0" dir="s" state="M"/>
    <connection from=":12_1" to="51" fromLane="0" toLane="0" dir="s" state="M"/>
    <connection from=":2_0" to="13" fromLane="0" toLane="0" dir="l" state="M"/>
    <connection from=":2_1" to="-3" fromLane="0" toLane="0" dir="r" state="M"/>
    <connection from=":32_0" to="53" fromLane="0" toLane="0" dir="l" state="M"/>
    <connection from=":32_1" to="-33" fromLane="0" toLane="0" dir="r" state="M"/>
    <connection from=":34_0" to="-35" fromLane="0" toLane="0" dir="t" state="M"/>
    <connection from=":36_0" to="-37" fromLane="0" toLane="0" dir="t" state="M"/>
    <connection from=":50_0" to="-51" fromLane="0" toLane="0" dir="t" state="M"/>
    <connection from=":52_0" to="-53" fromLane="0" toLane="0" dir="t" state="M"/>
    <connection from=":6_0" to="-7" fromLane="0" toLane="0" dir="s" state="M"/>
    <connection from=":6_1" to="33" fromLane="0" toLane="0" dir="s" state="M"/>
    <connection from=":8_0" to="-9" fromLane="0" toLane="0" dir="r" state="M"/>
    <connection from=":8_1" to="35" fromLane="0" toLane="0" dir="l" state="M"/>

</net>
