<?xml version="1.0" encoding="UTF-8"?>

<!-- generated on 2025-04-02 03:34:27 by Eclipse SUMO netgenerate Version 1.22.0
<netgenerateConfiguration xmlns:xsi="http://www.w3.org/2001/XMLSchema-instance" xsi:noNamespaceSchemaLocation="http://sumo.dlr.de/xsd/netgenerateConfiguration.xsd">

    <random_network>
        <rand value="true"/>
        <rand.iterations value="11"/>
        <rand.max-distance value="2659.135426467603"/>
        <rand.min-distance value="861.5024001516307"/>
        <rand.min-angle value="40.46676731354566"/>
        <rand.neighbor-dist1 value="1.0"/>
        <rand.neighbor-dist2 value="10.0"/>
        <rand.neighbor-dist3 value="0.0"/>
        <rand.neighbor-dist4 value="1.0"/>
        <rand.neighbor-dist5 value="0.0"/>
        <rand.neighbor-dist6 value="0.0"/>
    </random_network>

    <output>
        <output-file value="configs/rand-configs/rand4.net.xml"/>
    </output>

    <tls_building>
        <tls.guess value="true"/>
        <tls.guess.threshold value="0"/>
    </tls_building>

</netgenerateConfiguration>
-->

<net version="1.20" junctionCornerDetail="5" limitTurnSpeed="5.50" xmlns:xsi="http://www.w3.org/2001/XMLSchema-instance" xsi:noNamespaceSchemaLocation="http://sumo.dlr.de/xsd/net_file.xsd">

    <location netOffset="2198.27,3643.30" convBoundary="0.00,0.00,8716.62,5840.64" origBoundary="-2198.27,-3643.30,6518.35,2197.34" projParameter="!"/>

    <edge id=":1_0" function="internal">
        <lane id=":1_0_0" index="0" speed="11.26" length="16.20" shape="2196.78,3650.70 2196.16,3647.49 2194.38,3644.34 2191.45,3641.27 2187.36,3638.28"/>
    </edge>
    <edge id=":1_1" function="internal">
        <lane id=":1_1_0" index="0" speed="13.89" length="18.84" shape="2196.78,3650.70 2196.47,3646.37 2195.77,3641.35 2194.86,3636.36 2193.93,3632.11"/>
    </edge>
    <edge id=":1_2" function="internal">
        <lane id=":1_2_0" index="0" speed="7.91" length="3.57" shape="2196.78,3650.70 2197.24,3647.16"/>
    </edge>
    <edge id=":1_3" function="internal">
        <lane id=":1_3_0" index="0" speed="3.65" length="1.44" shape="2196.78,3650.70 2197.56,3649.49"/>
    </edge>
    <edge id=":1_16" function="internal">
        <lane id=":1_16_0" index="0" speed="7.91" length="10.83" shape="2197.24,3647.16 2197.29,3646.76 2198.94,3643.99 2201.74,3642.40 2205.70,3641.98"/>
    </edge>
    <edge id=":1_17" function="internal">
        <lane id=":1_17_0" index="0" speed="3.65" length="3.23" shape="2197.56,3649.49 2198.36,3649.08 2199.16,3649.47 2199.98,3650.65"/>
    </edge>
    <edge id=":1_4" function="internal">
        <lane id=":1_4_0" index="0" speed="6.39" length="9.04" shape="2205.58,3645.18 2203.10,3645.44 2201.34,3646.44 2200.30,3648.18 2199.98,3650.65"/>
    </edge>
    <edge id=":1_5" function="internal">
        <lane id=":1_5_0" index="0" speed="13.89" length="19.61" shape="2205.58,3645.18 2201.22,3644.40 2196.18,3642.66 2191.29,3640.46 2187.36,3638.28"/>
    </edge>
    <edge id=":1_6" function="internal">
        <lane id=":1_6_0" index="0" speed="10.07" length="4.78" shape="2205.58,3645.18 2202.14,3643.87 2201.32,3643.13"/>
    </edge>
    <edge id=":1_7" function="internal">
        <lane id=":1_7_0" index="0" speed="3.65" length="1.44" shape="2205.58,3645.18 2204.41,3644.34"/>
    </edge>
    <edge id=":1_18" function="internal">
        <lane id=":1_18_0" index="0" speed="10.07" length="13.48" shape="2201.32,3643.13 2198.66,3640.71 2195.72,3636.52 2193.93,3632.11"/>
    </edge>
    <edge id=":1_19" function="internal">
        <lane id=":1_19_0" index="0" speed="3.65" length="3.23" shape="2204.41,3644.34 2204.04,3643.52 2204.47,3642.74 2205.70,3641.98"/>
    </edge>
    <edge id=":1_8" function="internal">
        <lane id=":1_8_0" index="0" speed="9.08" length="14.69" shape="2197.04,3631.36 2198.52,3635.92 2200.46,3639.21 2202.85,3641.23 2205.70,3641.98"/>
    </edge>
    <edge id=":1_9" function="internal">
        <lane id=":1_9_0" index="0" speed="13.89" length="19.54" shape="2197.04,3631.36 2197.98,3635.72 2198.92,3640.96 2199.65,3646.21 2199.98,3650.65"/>
    </edge>
    <edge id=":1_10" function="internal">
        <lane id=":1_10_0" index="0" speed="7.43" length="6.42" shape="2197.04,3631.36 2197.83,3637.57 2197.77,3637.72"/>
    </edge>
    <edge id=":1_11" function="internal">
        <lane id=":1_11_0" index="0" speed="3.65" length="1.44" shape="2197.04,3631.36 2196.55,3632.71"/>
    </edge>
    <edge id=":1_20" function="internal">
        <lane id=":1_20_0" index="0" speed="7.43" length="13.09" shape="2197.77,3637.72 2196.47,3640.79 2192.99,3641.03 2187.36,3638.28"/>
    </edge>
    <edge id=":1_21" function="internal">
        <lane id=":1_21_0" index="0" speed="3.65" length="3.23" shape="2196.55,3632.71 2195.86,3633.29 2194.99,3633.09 2193.93,3632.11"/>
    </edge>
    <edge id=":1_12" function="internal">
        <lane id=":1_12_0" index="0" speed="5.47" length="9.79" shape="2189.08,3635.58 2191.90,3636.96 2193.65,3636.84 2194.33,3635.22 2193.93,3632.11"/>
    </edge>
    <edge id=":1_13" function="internal">
        <lane id=":1_13_0" index="0" speed="13.89" length="17.96" shape="2189.08,3635.58 2192.75,3637.68 2197.10,3639.71 2201.59,3641.28 2205.70,3641.98"/>
    </edge>
    <edge id=":1_14" function="internal">
        <lane id=":1_14_0" index="0" speed="12.18" length="5.03" shape="2189.08,3635.58 2192.98,3638.76"/>
    </edge>
    <edge id=":1_15" function="internal">
        <lane id=":1_15_0" index="0" speed="3.65" length="1.44" shape="2189.08,3635.58 2189.66,3636.90"/>
    </edge>
    <edge id=":1_22" function="internal">
        <lane id=":1_22_0" index="0" speed="12.18" length="14.02" shape="2192.98,3638.76 2196.47,3642.82 2198.99,3647.03 2199.98,3650.65"/>
    </edge>
    <edge id=":1_23" function="internal">
        <lane id=":1_23_0" index="0" speed="3.65" length="3.23" shape="2189.66,3636.90 2189.57,3637.79 2188.80,3638.25 2187.36,3638.28"/>
    </edge>
    <edge id=":10_0" function="internal">
        <lane id=":10_0_0" index="0" speed="6.13" length="10.26" shape="5.04,1751.97 2.09,1752.45 0.07,1751.78 -1.02,1749.94 -1.16,1746.95"/>
    </edge>
    <edge id=":10_1" function="internal">
        <lane id=":10_1_0" index="0" speed="3.93" length="3.42" shape="2.03,1747.24 2.08,1748.24 2.44,1748.85 3.11,1749.07 4.10,1748.91"/>
    </edge>
    <edge id=":16_0" function="internal">
        <lane id=":16_0_0" index="0" speed="6.14" length="6.45" shape="99.97,4381.68 98.70,4380.53 97.97,4379.20 97.81,4377.71 98.19,4376.03"/>
    </edge>
    <edge id=":16_1" function="internal">
        <lane id=":16_1_0" index="0" speed="3.93" length="2.15" shape="101.18,4377.16 101.06,4377.71 101.11,4378.21 101.35,4378.65 101.78,4379.04"/>
    </edge>
    <edge id=":19_0" function="internal">
        <lane id=":19_0_0" index="0" speed="4.11" length="1.43" shape="6181.91,2208.15 6181.54,2208.11 6181.19,2208.16 6180.87,2208.29 6180.57,2208.50"/>
    </edge>
    <edge id=":19_1" function="internal">
        <lane id=":19_1_0" index="0" speed="6.46" length="4.29" shape="6178.49,2206.07 6179.40,2205.44 6180.37,2205.05 6181.40,2204.91 6182.50,2205.00"/>
    </edge>
    <edge id=":2_0" function="internal">
        <lane id=":2_0_0" index="0" speed="3.90" length="2.70" shape="1622.38,1251.87 1622.11,1251.18 1621.68,1250.75 1621.09,1250.60 1620.35,1250.72"/>
    </edge>
    <edge id=":2_1" function="internal">
        <lane id=":2_1_0" index="0" speed="6.07" length="8.11" shape="1619.41,1247.66 1621.62,1247.31 1623.37,1247.77 1624.67,1249.04 1625.50,1251.12"/>
    </edge>
    <edge id=":23_0" function="internal">
        <lane id=":23_0_0" index="0" speed="3.95" length="2.03" shape="130.37,354.77 129.87,354.95 129.50,355.25 129.25,355.66 129.13,356.18"/>
    </edge>
    <edge id=":23_1" function="internal">
        <lane id=":23_1_0" index="0" speed="6.17" length="6.08" shape="125.95,355.89 126.30,354.33 127.03,353.10 128.16,352.20 129.67,351.65"/>
    </edge>
    <edge id=":25_0" function="internal">
        <lane id=":25_0_0" index="0" speed="3.65" length="4.67" shape="8716.91,2685.54 8717.94,2686.55 8718.19,2687.42 8717.65,2688.13 8716.32,2688.69"/>
    </edge>
    <edge id=":29_0" function="internal">
        <lane id=":29_0_0" index="0" speed="3.65" length="4.67" shape="1688.78,-1.56 1690.13,-1.05 1690.70,-0.35 1690.48,0.52 1689.49,1.56"/>
    </edge>
    <edge id=":4_0" function="internal">
        <lane id=":4_0_0" index="0" speed="3.91" length="2.99" shape="727.17,2712.20 726.40,2711.85 725.75,2711.87 725.22,2712.25 724.81,2712.99"/>
    </edge>
    <edge id=":4_1" function="internal">
        <lane id=":4_1_0" index="0" speed="6.08" length="8.97" shape="721.82,2711.86 723.04,2709.64 724.62,2708.50 726.57,2708.46 728.88,2709.49"/>
    </edge>
    <edge id=":6_0" function="internal">
        <lane id=":6_0_0" index="0" speed="6.28" length="12.25" shape="2234.28,5834.43 2233.87,5838.16 2232.48,5840.08 2230.11,5840.18 2226.77,5838.46"/>
    </edge>
    <edge id=":6_1" function="internal">
        <lane id=":6_1_0" index="0" speed="4.01" length="4.08" shape="2228.58,5835.82 2229.69,5836.39 2230.48,5836.36 2230.94,5835.72 2231.08,5834.48"/>
    </edge>
    <edge id=":8_0" function="internal">
        <lane id=":8_0_0" index="0" speed="6.77" length="3.63" shape="4399.63,3727.15 4398.80,3727.82 4398.13,3728.17 4397.39,3728.30 4396.33,3728.29"/>
    </edge>
    <edge id=":8_1" function="internal">
        <lane id=":8_1_0" index="0" speed="4.27" length="1.21" shape="4396.45,3725.10 4396.81,3725.10 4397.05,3725.05 4397.27,3724.94 4397.55,3724.71"/>
    </edge>

    <edge id="-11" from="10" to="2" priority="-1">
        <lane id="-11_0" index="0" speed="13.89" length="1691.29" shape="4.10,1748.91 1619.41,1247.66"/>
    </edge>
    <edge id="-17" from="16" to="4" priority="-1">
        <lane id="-17_0" index="0" speed="13.89" length="1777.18" shape="98.19,4376.03 721.82,2711.86"/>
    </edge>
    <edge id="-18" from="16" to="6" priority="-1">
        <lane id="-18_0" index="0" speed="13.89" length="2577.88" shape="101.78,4379.04 2228.58,5835.82"/>
    </edge>
    <edge id="-20" from="19" to="8" priority="-1">
        <lane id="-20_0" index="0" speed="13.89" length="2340.52" shape="6180.57,2208.50 4399.63,3727.15"/>
    </edge>
    <edge id="-24" from="23" to="10" priority="-1">
        <lane id="-24_0" index="0" speed="13.89" length="1396.85" shape="129.13,356.18 2.03,1747.24"/>
    </edge>
    <edge id="-26" from="25" to="19" priority="-1">
        <lane id="-26_0" index="0" speed="13.89" length="2579.57" shape="8716.32,2688.69 6181.91,2208.15"/>
    </edge>
    <edge id="-3" from="2" to="1" priority="-1">
        <lane id="-3_0" index="0" speed="13.89" length="2447.90" shape="1625.50,1251.12 2197.04,3631.36"/>
    </edge>
    <edge id="-30" from="29" to="23" priority="-1">
        <lane id="-30_0" index="0" speed="13.89" length="1598.62" shape="1689.49,1.56 130.37,354.77"/>
    </edge>
    <edge id="-5" from="4" to="1" priority="-1">
        <lane id="-5_0" index="0" speed="13.89" length="1729.10" shape="728.88,2709.49 2189.08,3635.58"/>
    </edge>
    <edge id="-7" from="6" to="1" priority="-1">
        <lane id="-7_0" index="0" speed="13.89" length="2184.04" shape="2231.08,5834.48 2196.78,3650.70"/>
    </edge>
    <edge id="-9" from="8" to="1" priority="-1">
        <lane id="-9_0" index="0" speed="13.89" length="2192.33" shape="4396.33,3728.29 2205.58,3645.18"/>
    </edge>
    <edge id="11" from="2" to="10" priority="-1">
        <lane id="11_0" index="0" speed="13.89" length="1691.29" shape="1620.35,1250.72 5.04,1751.97"/>
    </edge>
    <edge id="17" from="4" to="16" priority="-1">
        <lane id="17_0" index="0" speed="13.89" length="1777.18" shape="724.81,2712.99 101.18,4377.16"/>
    </edge>
    <edge id="18" from="6" to="16" priority="-1">
        <lane id="18_0" index="0" speed="13.89" length="2577.88" shape="2226.77,5838.46 99.97,4381.68"/>
    </edge>
    <edge id="20" from="8" to="19" priority="-1">
        <lane id="20_0" index="0" speed="13.89" length="2340.52" shape="4397.55,3724.71 6178.49,2206.07"/>
    </edge>
    <edge id="24" from="10" to="23" priority="-1">
        <lane id="24_0" index="0" speed="13.89" length="1396.85" shape="-1.16,1746.95 125.95,355.89"/>
    </edge>
    <edge id="26" from="19" to="25" priority="-1">
        <lane id="26_0" index="0" speed="13.89" length="2579.57" shape="6182.50,2205.00 8716.91,2685.54"/>
    </edge>
    <edge id="3" from="1" to="2" priority="-1">
        <lane id="3_0" index="0" speed="13.89" length="2447.90" shape="2193.93,3632.11 1622.38,1251.87"/>
    </edge>
    <edge id="30" from="23" to="29" priority="-1">
        <lane id="30_0" index="0" speed="13.89" length="1598.62" shape="129.67,351.65 1688.78,-1.56"/>
    </edge>
    <edge id="5" from="1" to="4" priority="-1">
        <lane id="5_0" index="0" speed="13.89" length="1729.10" shape="2187.36,3638.28 727.17,2712.20"/>
    </edge>
    <edge id="7" from="1" to="6" priority="-1">
        <lane id="7_0" index="0" speed="13.89" length="2184.04" shape="2199.98,3650.65 2234.28,5834.43"/>
    </edge>
    <edge id="9" from="1" to="8" priority="-1">
        <lane id="9_0" index="0" speed="13.89" length="2192.33" shape="2205.70,3641.98 4396.45,3725.10"/>
    </edge>

    <tlLogic id="1" type="static" programID="0" offset="0">
        <phase duration="42" state="GGggrrrrGGggrrrr"/>
        <phase duration="3"  state="yyyyrrrryyyyrrrr"/>
        <phase duration="42" state="rrrrGGggrrrrGGgg"/>
        <phase duration="3"  state="rrrryyyyrrrryyyy"/>
    </tlLogic>

    <junction id="1" type="traffic_light" x="2198.27" y="3643.30" incLanes="-7_0 -9_0 -3_0 -5_0" intLanes=":1_0_0 :1_1_0 :1_16_0 :1_17_0 :1_4_0 :1_5_0 :1_18_0 :1_19_0 :1_8_0 :1_9_0 :1_20_0 :1_21_0 :1_12_0 :1_13_0 :1_22_0 :1_23_0" shape="2195.18,3650.73 2201.58,3650.63 2201.99,3648.42 2202.53,3647.67 2203.30,3647.14 2204.30,3646.84 2205.52,3646.78 2205.76,3640.38 2202.76,3639.26 2201.50,3637.94 2200.38,3636.12 2199.41,3633.81 2198.60,3630.99 2192.38,3632.48 2192.52,3634.40 2192.23,3634.86 2191.71,3634.99 2190.94,3634.77 2189.93,3634.23 2186.51,3639.63 2189.13,3641.45 2191.29,3643.29 2192.97,3645.13 2194.18,3646.99 2194.92,3648.85">
        <request index="0"  response="0000000000000000" foes="1000010000100000" cont="0"/>
        <request index="1"  response="0100000001000000" foes="0111110001100000" cont="0"/>
        <request index="2"  response="0100001101000000" foes="0110001111100000" cont="1"/>
        <request index="3"  response="0100001000010000" foes="0100001000010000" cont="1"/>
        <request index="4"  response="0000001000000000" foes="0100001000001000" cont="0"/>
        <request index="5"  response="0000011000000111" foes="1100011000000111" cont="0"/>
        <request index="6"  response="0011011000000110" foes="0011111000000110" cont="1"/>
        <request index="7"  response="0010000100000100" foes="0010000100000100" cont="1"/>
        <request index="8"  response="0000000000000000" foes="0010000010000100" cont="0"/>
        <request index="9"  response="0100000001000000" foes="0110000001111100" cont="0"/>
        <request index="10" response="0100000001000011" foes="1110000001100011" cont="1"/>
        <request index="11" response="0001000001000010" foes="0001000001000010" cont="1"/>
        <request index="12" response="0000000000000010" foes="0000100001000010" cont="0"/>
        <request index="13" response="0000011100000110" foes="0000011111000110" cont="0"/>
        <request index="14" response="0000011000110110" foes="0000011000111110" cont="1"/>
        <request index="15" response="0000010000100001" foes="0000010000100001" cont="1"/>
    </junction>
    <junction id="10" type="priority" x="0.00" y="1751.86" incLanes="11_0 -24_0" intLanes=":10_0_0 :10_1_0" shape="5.52,1753.50 3.62,1747.38 -2.75,1746.80 -2.76,1749.64 -2.22,1751.78 -1.12,1753.24 0.54,1754.01 2.75,1754.10">
        <request index="0" response="00" foes="00" cont="0"/>
        <request index="1" response="00" foes="00" cont="0"/>
    </junction>
    <junction id="16" type="priority" x="98.81" y="4378.94" incLanes="18_0 17_0" intLanes=":16_0_0 :16_1_0" shape="99.07,4383.00 102.68,4377.72 96.69,4375.47 96.17,4378.39 96.40,4379.70 96.96,4380.90 97.85,4382.00">
        <request index="0" response="00" foes="00" cont="0"/>
        <request index="1" response="00" foes="00" cont="0"/>
    </junction>
    <junction id="19" type="priority" x="6180.70" y="2206.29" incLanes="-26_0 20_0" intLanes=":19_0_0 :19_1_0" shape="6181.61,2209.72 6182.80,2203.43 6180.87,2203.33 6179.96,2203.50 6179.09,2203.81 6178.25,2204.26 6177.45,2204.85">
        <request index="0" response="00" foes="00" cont="0"/>
        <request index="1" response="00" foes="00" cont="0"/>
    </junction>
    <junction id="2" type="priority" x="1623.14" y="1248.18" incLanes="3_0 -11_0" intLanes=":2_0_0 :2_1_0" shape="1620.83,1252.24 1627.05,1250.75 1626.38,1248.78 1625.44,1247.29 1624.22,1246.27 1622.73,1245.75 1620.97,1245.70 1618.93,1246.13">
        <request index="0" response="00" foes="00" cont="0"/>
        <request index="1" response="00" foes="00" cont="0"/>
    </junction>
    <junction id="23" type="priority" x="127.75" y="353.72" incLanes="-30_0 24_0" intLanes=":23_0_0 :23_1_0" shape="130.73,356.33 129.31,350.09 126.74,351.17 125.80,352.02 125.09,353.06 124.61,354.30 124.35,355.75">
        <request index="0" response="00" foes="00" cont="0"/>
        <request index="1" response="00" foes="00" cont="0"/>
    </junction>
    <junction id="25" type="priority" x="8716.62" y="2687.12" incLanes="26_0" intLanes=":25_0_0" shape="8716.62,2687.12 8717.21,2683.97 8716.62,2687.12">
        <request index="0" response="0" foes="0" cont="0"/>
    </junction>
    <junction id="29" type="priority" x="1689.14" y="0.00" incLanes="30_0" intLanes=":29_0_0" shape="1689.14,-0.00 1688.43,-3.12 1689.14,-0.00">
        <request index="0" response="0" foes="0" cont="0"/>
    </junction>
    <junction id="4" type="priority" x="724.70" y="2708.74" incLanes="5_0 -17_0" intLanes=":4_0_0 :4_1_0" shape="726.31,2713.55 729.74,2708.14 727.63,2707.06 725.74,2706.62 724.06,2706.82 722.60,2707.67 721.35,2709.16 720.32,2711.30">
        <request index="0" response="00" foes="00" cont="0"/>
        <request index="1" response="00" foes="00" cont="0"/>
    </junction>
    <junction id="6" type="priority" x="2232.78" y="5840.64" incLanes="7_0 -18_0" intLanes=":6_0_0 :6_1_0" shape="2235.88,5834.40 2229.48,5834.50 2225.86,5839.78 2228.98,5841.57 2231.52,5842.29 2233.47,5841.93 2234.85,5840.50 2235.66,5837.99">
        <request index="0" response="00" foes="00" cont="0"/>
        <request index="1" response="00" foes="00" cont="0"/>
    </junction>
    <junction id="8" type="priority" x="4397.64" y="3726.74" incLanes="-20_0 9_0" intLanes=":8_0_0 :8_1_0" shape="4400.66,3728.37 4396.51,3723.50 4396.27,3729.89 4398.05,3729.87 4398.67,3729.73 4399.25,3729.45 4399.89,3729.01">
        <request index="0" response="00" foes="00" cont="0"/>
        <request index="1" response="00" foes="00" cont="0"/>
    </junction>

    <junction id=":1_16_0" type="internal" x="2197.24" y="3647.16" incLanes=":1_2_0 -3_0" intLanes=":1_5_0 :1_6_0 :1_7_0 :1_8_0 :1_9_0 :1_13_0 :1_14_0"/>
    <junction id=":1_17_0" type="internal" x="2197.56" y="3649.49" incLanes=":1_3_0 -3_0 -5_0 -9_0" intLanes=":1_4_0 :1_9_0 :1_14_0"/>
    <junction id=":1_18_0" type="internal" x="2201.32" y="3643.13" incLanes=":1_6_0 -5_0" intLanes=":1_1_0 :1_2_0 :1_9_0 :1_10_0 :1_11_0 :1_12_0 :1_13_0"/>
    <junction id=":1_19_0" type="internal" x="2204.41" y="3644.34" incLanes=":1_7_0 -3_0 -5_0 -7_0" intLanes=":1_2_0 :1_8_0 :1_13_0"/>
    <junction id=":1_20_0" type="internal" x="2197.77" y="3637.72" incLanes=":1_10_0 -7_0" intLanes=":1_0_0 :1_1_0 :1_5_0 :1_6_0 :1_13_0 :1_14_0 :1_15_0"/>
    <junction id=":1_21_0" type="internal" x="2196.55" y="3632.71" incLanes=":1_11_0 -5_0 -7_0 -9_0" intLanes=":1_1_0 :1_6_0 :1_12_0"/>
    <junction id=":1_22_0" type="internal" x="2192.98" y="3638.76" incLanes=":1_14_0 -9_0" intLanes=":1_1_0 :1_2_0 :1_3_0 :1_4_0 :1_5_0 :1_9_0 :1_10_0"/>
    <junction id=":1_23_0" type="internal" x="2189.66" y="3636.90" incLanes=":1_15_0 -3_0 -7_0 -9_0" intLanes=":1_0_0 :1_5_0 :1_10_0"/>

    <connection from="-11" to="-3" fromLane="0" toLane="0" via=":2_1_0" dir="l" state="M"/>
    <connection from="-17" to="-5" fromLane="0" toLane="0" via=":4_1_0" dir="l" state="M"/>
    <connection from="-18" to="-7" fromLane="0" toLane="0" via=":6_1_0" dir="r" state="M"/>
    <connection from="-20" to="-9" fromLane="0" toLane="0" via=":8_0_0" dir="s" state="M"/>
    <connection from="-24" to="-11" fromLane="0" toLane="0" via=":10_1_0" dir="r" state="M"/>
    <connection from="-26" to="-20" fromLane="0" toLane="0" via=":19_0_0" dir="r" state="M"/>
    <connection from="-3" to="9" fromLane="0" toLane="0" via=":1_8_0" tl="1" linkIndex="8" dir="r" state="O"/>
    <connection from="-3" to="7" fromLane="0" toLane="0" via=":1_9_0" tl="1" linkIndex="9" dir="s" state="O"/>
    <connection from="-3" to="5" fromLane="0" toLane="0" via=":1_10_0" tl="1" linkIndex="10" dir="l" state="o"/>
    <connection from="-3" to="3" fromLane="0" toLane="0" via=":1_11_0" tl="1" linkIndex="11" dir="t" state="o"/>
    <connection from="-30" to="-24" fromLane="0" toLane="0" via=":23_0_0" dir="r" state="M"/>
    <connection from="-5" to="3" fromLane="0" toLane="0" via=":1_12_0" tl="1" linkIndex="12" dir="r" state="o"/>
    <connection from="-5" to="9" fromLane="0" toLane="0" via=":1_13_0" tl="1" linkIndex="13" dir="s" state="o"/>
    <connection from="-5" to="7" fromLane="0" toLane="0" via=":1_14_0" tl="1" linkIndex="14" dir="l" state="o"/>
    <connection from="-5" to="5" fromLane="0" toLane="0" via=":1_15_0" tl="1" linkIndex="15" dir="t" state="o"/>
    <connection from="-7" to="5" fromLane="0" toLane="0" via=":1_0_0" tl="1" linkIndex="0" dir="r" state="O"/>
    <connection from="-7" to="3" fromLane="0" toLane="0" via=":1_1_0" tl="1" linkIndex="1" dir="s" state="O"/>
    <connection from="-7" to="9" fromLane="0" toLane="0" via=":1_2_0" tl="1" linkIndex="2" dir="l" state="o"/>
    <connection from="-7" to="7" fromLane="0" toLane="0" via=":1_3_0" tl="1" linkIndex="3" dir="t" state="o"/>
    <connection from="-9" to="7" fromLane="0" toLane="0" via=":1_4_0" tl="1" linkIndex="4" dir="r" state="o"/>
    <connection from="-9" to="5" fromLane="0" toLane="0" via=":1_5_0" tl="1" linkIndex="5" dir="s" state="o"/>
    <connection from="-9" to="3" fromLane="0" toLane="0" via=":1_6_0" tl="1" linkIndex="6" dir="l" state="o"/>
    <connection from="-9" to="9" fromLane="0" toLane="0" via=":1_7_0" tl="1" linkIndex="7" dir="t" state="o"/>
    <connection from="11" to="24" fromLane="0" toLane="0" via=":10_0_0" dir="l" state="M"/>
    <connection from="17" to="-18" fromLane="0" toLane="0" via=":16_1_0" dir="r" state="M"/>
    <connection from="18" to="-17" fromLane="0" toLane="0" via=":16_0_0" dir="l" state="M"/>
    <connection from="20" to="26" fromLane="0" toLane="0" via=":19_1_0" dir="l" state="M"/>
    <connection from="24" to="30" fromLane="0" toLane="0" via=":23_1_0" dir="l" state="M"/>
    <connection from="26" to="-26" fromLane="0" toLane="0" via=":25_0_0" dir="t" state="M"/>
    <connection from="3" to="11" fromLane="0" toLane="0" via=":2_0_0" dir="r" state="M"/>
    <connection from="30" to="-30" fromLane="0" toLane="0" via=":29_0_0" dir="t" state="M"/>
    <connection from="5" to="17" fromLane="0" toLane="0" via=":4_0_0" dir="r" state="M"/>
    <connection from="7" to="18" fromLane="0" toLane="0" via=":6_0_0" dir="l" state="M"/>
    <connection from="9" to="20" fromLane="0" toLane="0" via=":8_1_0" dir="s" state="M"/>

    <connection from=":1_0" to="5" fromLane="0" toLane="0" dir="r" state="M"/>
    <connection from=":1_1" to="3" fromLane="0" toLane="0" dir="s" state="M"/>
    <connection from=":1_2" to="9" fromLane="0" toLane="0" via=":1_16_0" dir="l" state="m"/>
    <connection from=":1_16" to="9" fromLane="0" toLane="0" dir="l" state="M"/>
    <connection from=":1_3" to="7" fromLane="0" toLane="0" via=":1_17_0" dir="t" state="m"/>
    <connection from=":1_17" to="7" fromLane="0" toLane="0" dir="t" state="M"/>
    <connection from=":1_4" to="7" fromLane="0" toLane="0" dir="r" state="M"/>
    <connection from=":1_5" to="5" fromLane="0" toLane="0" dir="s" state="M"/>
    <connection from=":1_6" to="3" fromLane="0" toLane="0" via=":1_18_0" dir="l" state="m"/>
    <connection from=":1_18" to="3" fromLane="0" toLane="0" dir="l" state="M"/>
    <connection from=":1_7" to="9" fromLane="0" toLane="0" via=":1_19_0" dir="t" state="m"/>
    <connection from=":1_19" to="9" fromLane="0" toLane="0" dir="t" state="M"/>
    <connection from=":1_8" to="9" fromLane="0" toLane="0" dir="r" state="M"/>
    <connection from=":1_9" to="7" fromLane="0" toLane="0" dir="s" state="M"/>
    <connection from=":1_10" to="5" fromLane="0" toLane="0" via=":1_20_0" dir="l" state="m"/>
    <connection from=":1_20" to="5" fromLane="0" toLane="0" dir="l" state="M"/>
    <connection from=":1_11" to="3" fromLane="0" toLane="0" via=":1_21_0" dir="t" state="m"/>
    <connection from=":1_21" to="3" fromLane="0" toLane="0" dir="t" state="M"/>
    <connection from=":1_12" to="3" fromLane="0" toLane="0" dir="r" state="M"/>
    <connection from=":1_13" to="9" fromLane="0" toLane="0" dir="s" state="M"/>
    <connection from=":1_14" to="7" fromLane="0" toLane="0" via=":1_22_0" dir="l" state="m"/>
    <connection from=":1_22" to="7" fromLane="0" toLane="0" dir="l" state="M"/>
    <connection from=":1_15" to="5" fromLane="0" toLane="0" via=":1_23_0" dir="t" state="m"/>
    <connection from=":1_23" to="5" fromLane="0" toLane="0" dir="t" state="M"/>
    <connection from=":10_0" to="24" fromLane="0" toLane="0" dir="l" state="M"/>
    <connection from=":10_1" to="-11" fromLane="0" toLane="0" dir="r" state="M"/>
    <connection from=":16_0" to="-17" fromLane="0" toLane="0" dir="l" state="M"/>
    <connection from=":16_1" to="-18" fromLane="0" toLane="0" dir="r" state="M"/>
    <connection from=":19_0" to="-20" fromLane="0" toLane="0" dir="r" state="M"/>
    <connection from=":19_1" to="26" fromLane="0" toLane="0" dir="l" state="M"/>
    <connection from=":2_0" to="11" fromLane="0" toLane="0" dir="r" state="M"/>
    <connection from=":2_1" to="-3" fromLane="0" toLane="0" dir="l" state="M"/>
    <connection from=":23_0" to="-24" fromLane="0" toLane="0" dir="r" state="M"/>
    <connection from=":23_1" to="30" fromLane="0" toLane="0" dir="l" state="M"/>
    <connection from=":25_0" to="-26" fromLane="0" toLane="0" dir="t" state="M"/>
    <connection from=":29_0" to="-30" fromLane="0" toLane="0" dir="t" state="M"/>
    <connection from=":4_0" to="17" fromLane="0" toLane="0" dir="r" state="M"/>
    <connection from=":4_1" to="-5" fromLane="0" toLane="0" dir="l" state="M"/>
    <connection from=":6_0" to="18" fromLane="0" toLane="0" dir="l" state="M"/>
    <connection from=":6_1" to="-7" fromLane="0" toLane="0" dir="r" state="M"/>
    <connection from=":8_0" to="-9" fromLane="0" toLane="0" dir="s" state="M"/>
    <connection from=":8_1" to="20" fromLane="0" toLane="0" dir="s" state="M"/>

</net>
