<?xml version="1.0" encoding="UTF-8"?>

<!-- generated on 2025-03-26 03:36:18 by Eclipse SUMO netgenerate Version 1.22.0
<netgenerateConfiguration xmlns:xsi="http://www.w3.org/2001/XMLSchema-instance" xsi:noNamespaceSchemaLocation="http://sumo.dlr.de/xsd/netgenerateConfiguration.xsd">

    <random_network>
        <rand value="true"/>
        <rand.iterations value="385"/>
        <rand.max-distance value="2855.793404220314"/>
        <rand.min-distance value="786.0516083750235"/>
        <rand.min-angle value="54.12287054586128"/>
        <rand.neighbor-dist1 value="1.0"/>
        <rand.neighbor-dist2 value="10.0"/>
        <rand.neighbor-dist3 value="5.0"/>
        <rand.neighbor-dist4 value="5.0"/>
        <rand.neighbor-dist5 value="0.0"/>
        <rand.neighbor-dist6 value="0.0"/>
    </random_network>

    <output>
        <output-file value="configs/rand-configs/rand2.net.xml"/>
    </output>

    <tls_building>
        <tls.guess value="true"/>
        <tls.guess.threshold value="0"/>
    </tls_building>

</netgenerateConfiguration>
-->

<net version="1.20" junctionCornerDetail="5" limitTurnSpeed="5.50" xmlns:xsi="http://www.w3.org/2001/XMLSchema-instance" xsi:noNamespaceSchemaLocation="http://sumo.dlr.de/xsd/net_file.xsd">

    <location netOffset="30615.90,15664.27" convBoundary="0.00,0.00,51323.81,40606.49" origBoundary="-30615.90,-15664.27,20707.91,24942.21" projParameter="!"/>

    <edge id=":1_0" function="internal">
        <lane id=":1_0_0" index="0" speed="5.98" length="9.08" shape="30614.43,15672.57 30614.02,15670.00 30612.90,15668.42 30611.05,15667.84 30608.48,15668.25"/>
    </edge>
    <edge id=":1_1" function="internal">
        <lane id=":1_1_0" index="0" speed="13.89" length="14.86" shape="30614.43,15672.57 30614.30,15668.84 30613.98,15665.16 30613.46,15661.49 30612.71,15657.84"/>
    </edge>
    <edge id=":1_2" function="internal">
        <lane id=":1_2_0" index="0" speed="8.09" length="4.36" shape="30614.43,15672.57 30614.93,15668.23"/>
    </edge>
    <edge id=":1_3" function="internal">
        <lane id=":1_3_0" index="0" speed="3.65" length="1.44" shape="30614.43,15672.57 30615.21,15671.36"/>
    </edge>
    <edge id=":1_16" function="internal">
        <lane id=":1_16_0" index="0" speed="8.09" length="10.76" shape="30614.93,15668.23 30616.58,15665.19 30619.38,15663.43 30623.33,15662.95"/>
    </edge>
    <edge id=":1_17" function="internal">
        <lane id=":1_17_0" index="0" speed="3.65" length="3.23" shape="30615.21,15671.36 30616.01,15670.95 30616.81,15671.33 30617.63,15672.52"/>
    </edge>
    <edge id=":1_4" function="internal">
        <lane id=":1_4_0" index="0" speed="6.62" length="9.76" shape="30623.21,15666.15 30620.73,15666.47 30618.98,15667.64 30617.94,15669.65 30617.63,15672.52"/>
    </edge>
    <edge id=":1_5" function="internal">
        <lane id=":1_5_0" index="0" speed="13.89" length="14.95" shape="30623.21,15666.15 30619.47,15666.19 30615.76,15666.58 30612.09,15667.27 30608.48,15668.25"/>
    </edge>
    <edge id=":1_6" function="internal">
        <lane id=":1_6_0" index="0" speed="9.03" length="3.93" shape="30623.21,15666.15 30619.34,15665.51"/>
    </edge>
    <edge id=":1_7" function="internal">
        <lane id=":1_7_0" index="0" speed="3.65" length="1.44" shape="30623.21,15666.15 30622.04,15665.31"/>
    </edge>
    <edge id=":1_18" function="internal">
        <lane id=":1_18_0" index="0" speed="9.03" length="10.59" shape="30619.34,15665.51 30616.30,15663.91 30614.09,15661.36 30612.71,15657.84"/>
    </edge>
    <edge id=":1_19" function="internal">
        <lane id=":1_19_0" index="0" speed="3.65" length="3.23" shape="30622.04,15665.31 30621.67,15664.49 30622.10,15663.71 30623.33,15662.95"/>
    </edge>
    <edge id=":1_8" function="internal">
        <lane id=":1_8_0" index="0" speed="7.70" length="10.32" shape="30615.82,15657.10 30616.80,15659.57 30618.38,15661.37 30620.56,15662.50 30623.33,15662.95"/>
    </edge>
    <edge id=":1_9" function="internal">
        <lane id=":1_9_0" index="0" speed="13.89" length="15.56" shape="30615.82,15657.10 30616.59,15660.85 30617.14,15664.76 30617.48,15668.68 30617.63,15672.52"/>
    </edge>
    <edge id=":1_10" function="internal">
        <lane id=":1_10_0" index="0" speed="8.41" length="4.08" shape="30615.82,15657.10 30616.11,15660.89 30616.02,15661.15"/>
    </edge>
    <edge id=":1_11" function="internal">
        <lane id=":1_11_0" index="0" speed="3.65" length="1.44" shape="30615.82,15657.10 30615.33,15658.45"/>
    </edge>
    <edge id=":1_20" function="internal">
        <lane id=":1_20_0" index="0" speed="8.41" length="10.92" shape="30616.02,15661.15 30614.98,15664.02 30612.43,15666.47 30608.48,15668.25"/>
    </edge>
    <edge id=":1_21" function="internal">
        <lane id=":1_21_0" index="0" speed="3.65" length="3.23" shape="30615.33,15658.45 30614.64,15659.03 30613.77,15658.82 30612.71,15657.84"/>
    </edge>
    <edge id=":1_12" function="internal">
        <lane id=":1_12_0" index="0" speed="7.00" length="10.09" shape="30607.53,15665.20 30610.28,15663.98 30612.06,15662.35 30612.87,15660.31 30612.71,15657.84"/>
    </edge>
    <edge id=":1_13" function="internal">
        <lane id=":1_13_0" index="0" speed="13.89" length="16.03" shape="30607.53,15665.20 30611.31,15664.20 30615.35,15663.45 30619.43,15663.02 30623.33,15662.95"/>
    </edge>
    <edge id=":1_14" function="internal">
        <lane id=":1_14_0" index="0" speed="7.59" length="4.78" shape="30607.53,15665.20 30611.89,15664.50 30612.23,15664.61"/>
    </edge>
    <edge id=":1_15" function="internal">
        <lane id=":1_15_0" index="0" speed="3.65" length="1.44" shape="30607.53,15665.20 30608.91,15665.61"/>
    </edge>
    <edge id=":1_22" function="internal">
        <lane id=":1_22_0" index="0" speed="7.59" length="10.63" shape="30612.23,15664.61 30615.02,15665.49 30616.94,15668.16 30617.63,15672.52"/>
    </edge>
    <edge id=":1_23" function="internal">
        <lane id=":1_23_0" index="0" speed="3.65" length="3.23" shape="30608.91,15665.61 30609.53,15666.25 30609.38,15667.13 30608.48,15668.25"/>
    </edge>
    <edge id=":10_0" function="internal">
        <lane id=":10_0_0" index="0" speed="10.54" length="11.05" shape="28945.55,16190.83 28943.95,16187.98 28942.16,16185.75 28940.19,16184.14 28938.03,16183.15"/>
    </edge>
    <edge id=":10_1" function="internal">
        <lane id=":10_1_0" index="0" speed="7.76" length="14.77" shape="28945.55,16190.83 28944.32,16186.88 28944.74,16183.66 28946.82,16181.16 28950.56,16179.38"/>
    </edge>
    <edge id=":10_2" function="internal">
        <lane id=":10_2_0" index="0" speed="3.65" length="1.44" shape="28945.55,16190.83 28945.76,16189.40"/>
    </edge>
    <edge id=":10_9" function="internal">
        <lane id=":10_9_0" index="0" speed="3.65" length="3.23" shape="28945.76,16189.40 28946.31,16188.69 28947.20,16188.71 28948.44,16189.45"/>
    </edge>
    <edge id=":10_3" function="internal">
        <lane id=":10_3_0" index="0" speed="6.21" length="9.05" shape="28951.50,16182.43 28949.22,16183.52 28947.94,16185.05 28947.69,16187.03 28948.44,16189.45"/>
    </edge>
    <edge id=":10_4" function="internal">
        <lane id=":10_4_0" index="0" speed="13.89" length="13.71" shape="28951.50,16182.43 28948.06,16183.38 28944.77,16183.89 28941.48,16183.86 28938.03,16183.15"/>
    </edge>
    <edge id=":10_5" function="internal">
        <lane id=":10_5_0" index="0" speed="3.65" length="1.44" shape="28951.50,16182.43 28950.12,16182.03"/>
    </edge>
    <edge id=":10_10" function="internal">
        <lane id=":10_10_0" index="0" speed="3.65" length="3.23" shape="28950.12,16182.03 28949.50,16181.38 28949.65,16180.50 28950.56,16179.38"/>
    </edge>
    <edge id=":10_6" function="internal">
        <lane id=":10_6_0" index="0" speed="13.89" length="11.86" shape="28938.96,16180.09 28942.12,16180.80 28944.76,16180.83 28947.40,16180.32 28950.56,16179.38"/>
    </edge>
    <edge id=":10_7" function="internal">
        <lane id=":10_7_0" index="0" speed="11.70" length="3.06" shape="28938.96,16180.09 28941.75,16181.34"/>
    </edge>
    <edge id=":10_8" function="internal">
        <lane id=":10_8_0" index="0" speed="3.65" length="1.44" shape="28938.96,16180.09 28939.87,16181.20"/>
    </edge>
    <edge id=":10_11" function="internal">
        <lane id=":10_11_0" index="0" speed="11.70" length="10.65" shape="28941.75,16181.34 28944.26,16183.32 28946.49,16186.02 28948.44,16189.45"/>
    </edge>
    <edge id=":10_12" function="internal">
        <lane id=":10_12_0" index="0" speed="3.65" length="3.23" shape="28939.87,16181.20 28940.03,16182.09 28939.41,16182.73 28938.03,16183.15"/>
    </edge>
    <edge id=":100_0" function="internal">
        <lane id=":100_0_0" index="0" speed="4.14" length="1.36" shape="32685.57,20015.68 32685.23,20015.76 32684.93,20015.90 32684.67,20016.10 32684.44,20016.37"/>
    </edge>
    <edge id=":100_1" function="internal">
        <lane id=":100_1_0" index="0" speed="6.52" length="4.09" shape="32681.80,20014.56 32682.47,20013.76 32683.26,20013.15 32684.17,20012.73 32685.19,20012.51"/>
    </edge>
    <edge id=":1004_0" function="internal">
        <lane id=":1004_0_0" index="0" speed="6.12" length="10.16" shape="33705.10,26224.64 33705.27,26227.60 33704.39,26229.53 33702.48,26230.43 33699.52,26230.30"/>
    </edge>
    <edge id=":1004_1" function="internal">
        <lane id=":1004_1_0" index="0" speed="3.93" length="3.39" shape="33700.10,26227.15 33701.09,26227.19 33701.73,26226.89 33702.02,26226.25 33701.96,26225.27"/>
    </edge>
    <edge id=":1015_0" function="internal">
        <lane id=":1015_0_0" index="0" speed="7.06" length="3.09" shape="32456.36,25999.02 32455.47,25998.83 32454.87,25998.60 32454.36,25998.23 32453.73,25997.58"/>
    </edge>
    <edge id=":1015_1" function="internal">
        <lane id=":1015_1_0" index="0" speed="4.42" length="1.03" shape="32456.07,25995.39 32456.28,25995.61 32456.45,25995.73 32456.64,25995.81 32456.94,25995.87"/>
    </edge>
    <edge id=":1019_0" function="internal">
        <lane id=":1019_0_0" index="0" speed="7.47" length="9.84" shape="22509.27,20252.56 22506.86,20252.77 22504.86,20253.76 22503.27,20255.53 22502.08,20258.07"/>
    </edge>
    <edge id=":1019_1" function="internal">
        <lane id=":1019_1_0" index="0" speed="13.89" length="16.62" shape="22509.27,20252.56 22505.30,20252.13 22501.05,20251.41 22496.83,20250.52 22492.94,20249.56"/>
    </edge>
    <edge id=":1019_2" function="internal">
        <lane id=":1019_2_0" index="0" speed="10.14" length="3.93" shape="22509.27,20252.56 22505.76,20251.69 22505.50,20251.50"/>
    </edge>
    <edge id=":1019_3" function="internal">
        <lane id=":1019_3_0" index="0" speed="3.65" length="1.44" shape="22509.27,20252.56 22508.13,20251.68"/>
    </edge>
    <edge id=":1019_16" function="internal">
        <lane id=":1019_16_0" index="0" speed="10.14" length="12.53" shape="22505.50,20251.50 22502.76,20249.57 22500.27,20246.22 22498.29,20241.63"/>
    </edge>
    <edge id=":1019_17" function="internal">
        <lane id=":1019_17_0" index="0" speed="3.65" length="3.23" shape="22508.13,20251.68 22507.79,20250.86 22508.24,20250.09 22509.49,20249.37"/>
    </edge>
    <edge id=":1019_4" function="internal">
        <lane id=":1019_4_0" index="0" speed="8.95" length="12.68" shape="22501.33,20240.62 22502.88,20244.31 22504.76,20247.00 22506.96,20248.68 22509.49,20249.37"/>
    </edge>
    <edge id=":1019_5" function="internal">
        <lane id=":1019_5_0" index="0" speed="13.89" length="17.68" shape="22501.33,20240.62 22502.33,20244.68 22502.89,20249.35 22502.85,20254.01 22502.08,20258.07"/>
    </edge>
    <edge id=":1019_6" function="internal">
        <lane id=":1019_6_0" index="0" speed="7.39" length="5.96" shape="22501.33,20240.62 22502.32,20245.76 22502.09,20246.45"/>
    </edge>
    <edge id=":1019_7" function="internal">
        <lane id=":1019_7_0" index="0" speed="3.65" length="1.44" shape="22501.33,20240.62 22500.94,20242.01"/>
    </edge>
    <edge id=":1019_18" function="internal">
        <lane id=":1019_18_0" index="0" speed="7.39" length="11.24" shape="22502.09,20246.45 22501.25,20248.96 22498.13,20250.22 22492.94,20249.56"/>
    </edge>
    <edge id=":1019_19" function="internal">
        <lane id=":1019_19_0" index="0" speed="3.65" length="3.23" shape="22500.94,20242.01 22500.31,20242.65 22499.43,20242.52 22498.29,20241.63"/>
    </edge>
    <edge id=":1019_8" function="internal">
        <lane id=":1019_8_0" index="0" speed="5.62" length="9.30" shape="22493.75,20246.46 22496.56,20246.82 22498.25,20246.14 22498.83,20244.41 22498.29,20241.63"/>
    </edge>
    <edge id=":1019_9" function="internal">
        <lane id=":1019_9_0" index="0" speed="13.89" length="16.02" shape="22493.75,20246.46 22497.55,20247.41 22501.57,20248.26 22505.61,20248.95 22509.49,20249.37"/>
    </edge>
    <edge id=":1019_10" function="internal">
        <lane id=":1019_10_0" index="0" speed="8.38" length="5.07" shape="22493.75,20246.46 22498.49,20248.29"/>
    </edge>
    <edge id=":1019_11" function="internal">
        <lane id=":1019_11_0" index="0" speed="3.65" length="1.44" shape="22493.75,20246.46 22494.71,20247.54"/>
    </edge>
    <edge id=":1019_20" function="internal">
        <lane id=":1019_20_0" index="0" speed="8.38" length="11.39" shape="22498.49,20248.29 22501.45,20250.84 22502.65,20254.10 22502.08,20258.07"/>
    </edge>
    <edge id=":1019_21" function="internal">
        <lane id=":1019_21_0" index="0" speed="3.65" length="3.23" shape="22494.71,20247.54 22494.90,20248.42 22494.31,20249.09 22492.94,20249.56"/>
    </edge>
    <edge id=":1019_12" function="internal">
        <lane id=":1019_12_0" index="0" speed="6.98" length="11.07" shape="22499.05,20257.05 22499.35,20254.55 22498.43,20252.47 22496.29,20250.81 22492.94,20249.56"/>
    </edge>
    <edge id=":1019_13" function="internal">
        <lane id=":1019_13_0" index="0" speed="13.89" length="15.67" shape="22499.05,20257.05 22499.82,20253.31 22499.85,20249.34 22499.30,20245.38 22498.29,20241.63"/>
    </edge>
    <edge id=":1019_14" function="internal">
        <lane id=":1019_14_0" index="0" speed="8.83" length="2.79" shape="22499.05,20257.05 22500.24,20254.53"/>
    </edge>
    <edge id=":1019_15" function="internal">
        <lane id=":1019_15_0" index="0" speed="3.65" length="1.31" shape="22499.05,20257.05 22500.08,20256.25"/>
    </edge>
    <edge id=":1019_22" function="internal">
        <lane id=":1019_22_0" index="0" speed="8.83" length="11.30" shape="22500.24,20254.53 22500.73,20253.49 22503.03,20251.03 22505.95,20249.65 22509.49,20249.37"/>
    </edge>
    <edge id=":1019_23" function="internal">
        <lane id=":1019_23_0" index="0" speed="3.65" length="3.36" shape="22500.08,20256.25 22500.19,20256.17 22501.07,20256.04 22501.70,20256.68 22502.08,20258.07"/>
    </edge>
    <edge id=":102_0" function="internal">
        <lane id=":102_0_0" index="0" speed="13.89" length="13.72" shape="29619.08,24538.27 29615.49,24538.24 29612.14,24538.42 29608.94,24539.09 29605.76,24540.56"/>
    </edge>
    <edge id=":102_1" function="internal">
        <lane id=":102_1_0" index="0" speed="7.38" length="17.30" shape="29619.08,24538.27 29613.86,24537.56 29611.17,24535.53 29611.00,24532.15 29613.37,24527.44"/>
    </edge>
    <edge id=":102_2" function="internal">
        <lane id=":102_2_0" index="0" speed="3.65" length="1.44" shape="29619.08,24538.27 29617.89,24537.46"/>
    </edge>
    <edge id=":102_9" function="internal">
        <lane id=":102_9_0" index="0" speed="3.65" length="3.23" shape="29617.89,24537.46 29617.49,24536.66 29617.89,24535.86 29619.10,24535.07"/>
    </edge>
    <edge id=":102_3" function="internal">
        <lane id=":102_3_0" index="0" speed="5.60" length="9.32" shape="29616.02,24529.24 29614.75,24531.77 29614.83,24533.59 29616.28,24534.69 29619.10,24535.07"/>
    </edge>
    <edge id=":102_4" function="internal">
        <lane id=":102_4_0" index="0" speed="13.89" length="15.39" shape="29616.02,24529.24 29613.84,24532.38 29611.44,24535.47 29608.77,24538.27 29605.76,24540.56"/>
    </edge>
    <edge id=":102_5" function="internal">
        <lane id=":102_5_0" index="0" speed="3.65" length="1.44" shape="29616.02,24529.24 29614.69,24529.78"/>
    </edge>
    <edge id=":102_10" function="internal">
        <lane id=":102_10_0" index="0" speed="3.65" length="3.23" shape="29614.69,24529.78 29613.80,24529.67 29613.36,24528.89 29613.37,24527.44"/>
    </edge>
    <edge id=":102_6" function="internal">
        <lane id=":102_6_0" index="0" speed="13.89" length="14.06" shape="29604.08,24537.84 29606.93,24535.69 29609.27,24533.21 29611.33,24530.45 29613.37,24527.44"/>
    </edge>
    <edge id=":102_7" function="internal">
        <lane id=":102_7_0" index="0" speed="13.89" length="15.46" shape="29604.08,24537.84 29607.52,24536.29 29611.31,24535.46 29615.24,24535.12 29619.10,24535.07"/>
    </edge>
    <edge id=":102_8" function="internal">
        <lane id=":102_8_0" index="0" speed="3.65" length="1.44" shape="29604.08,24537.84 29605.52,24537.89"/>
    </edge>
    <edge id=":102_11" function="internal">
        <lane id=":102_11_0" index="0" speed="3.65" length="3.23" shape="29605.52,24537.89 29606.28,24538.36 29606.36,24539.25 29605.76,24540.56"/>
    </edge>
    <edge id=":1023_0" function="internal">
        <lane id=":1023_0_0" index="0" speed="13.13" length="15.10" shape="19902.51,21376.50 19898.85,21375.66 19895.07,21375.57 19891.32,21376.17 19887.76,21377.40"/>
    </edge>
    <edge id=":1023_1" function="internal">
        <lane id=":1023_1_0" index="0" speed="13.89" length="17.54" shape="19902.51,21376.50 19898.70,21374.87 19894.65,21372.64 19890.77,21370.11 19887.52,21367.54"/>
    </edge>
    <edge id=":1023_2" function="internal">
        <lane id=":1023_2_0" index="0" speed="7.61" length="4.98" shape="19902.51,21376.50 19898.62,21374.48 19898.26,21373.99"/>
    </edge>
    <edge id=":1023_3" function="internal">
        <lane id=":1023_3_0" index="0" speed="3.65" length="1.44" shape="19902.51,21376.50 19901.64,21375.34"/>
    </edge>
    <edge id=":1023_16" function="internal">
        <lane id=":1023_16_0" index="0" speed="7.61" length="10.34" shape="19898.26,21373.99 19896.68,21371.83 19896.68,21368.55 19898.63,21364.63"/>
    </edge>
    <edge id=":1023_17" function="internal">
        <lane id=":1023_17_0" index="0" speed="3.65" length="3.23" shape="19901.64,21375.34 19901.52,21374.46 19902.16,21373.83 19903.56,21373.47"/>
    </edge>
    <edge id=":1023_4" function="internal">
        <lane id=":1023_4_0" index="0" speed="6.00" length="9.08" shape="19901.26,21366.44 19900.11,21368.77 19900.11,21370.71 19901.26,21372.28 19903.56,21373.47"/>
    </edge>
    <edge id=":1023_5" function="internal">
        <lane id=":1023_5_0" index="0" speed="13.89" length="17.55" shape="19901.26,21366.44 19898.60,21369.61 19895.16,21372.70 19891.40,21375.41 19887.76,21377.40"/>
    </edge>
    <edge id=":1023_6" function="internal">
        <lane id=":1023_6_0" index="0" speed="8.17" length="5.14" shape="19901.26,21366.44 19898.28,21369.60 19897.53,21369.88"/>
    </edge>
    <edge id=":1023_7" function="internal">
        <lane id=":1023_7_0" index="0" speed="3.65" length="1.44" shape="19901.26,21366.44 19899.92,21366.98"/>
    </edge>
    <edge id=":1023_18" function="internal">
        <lane id=":1023_18_0" index="0" speed="8.17" length="11.05" shape="19897.53,21369.88 19894.99,21370.84 19891.40,21370.15 19887.52,21367.54"/>
    </edge>
    <edge id=":1023_19" function="internal">
        <lane id=":1023_19_0" index="0" speed="3.65" length="3.23" shape="19899.92,21366.98 19899.04,21366.85 19898.61,21366.07 19898.63,21364.63"/>
    </edge>
    <edge id=":1023_8" function="internal">
        <lane id=":1023_8_0" index="0" speed="6.71" length="10.57" shape="19889.64,21365.14 19892.21,21366.89 19894.57,21367.39 19896.71,21366.63 19898.63,21364.63"/>
    </edge>
    <edge id=":1023_9" function="internal">
        <lane id=":1023_9_0" index="0" speed="13.89" length="16.31" shape="19889.64,21365.14 19892.73,21367.61 19896.23,21369.93 19899.92,21371.94 19903.56,21373.47"/>
    </edge>
    <edge id=":1023_10" function="internal">
        <lane id=":1023_10_0" index="0" speed="7.46" length="3.68" shape="19889.64,21365.14 19892.03,21367.94"/>
    </edge>
    <edge id=":1023_11" function="internal">
        <lane id=":1023_11_0" index="0" speed="3.65" length="1.44" shape="19889.64,21365.14 19890.00,21366.54"/>
    </edge>
    <edge id=":1023_20" function="internal">
        <lane id=":1023_20_0" index="0" speed="7.46" length="12.49" shape="19892.03,21367.94 19892.74,21368.76 19893.46,21372.00 19891.80,21374.89 19887.76,21377.40"/>
    </edge>
    <edge id=":1023_21" function="internal">
        <lane id=":1023_21_0" index="0" speed="3.65" length="3.23" shape="19890.00,21366.54 19889.77,21367.40 19888.94,21367.74 19887.52,21367.54"/>
    </edge>
    <edge id=":1023_12" function="internal">
        <lane id=":1023_12_0" index="0" speed="5.78" length="9.16" shape="19886.45,21374.48 19888.74,21373.06 19889.68,21371.42 19889.27,21369.59 19887.52,21367.54"/>
    </edge>
    <edge id=":1023_13" function="internal">
        <lane id=":1023_13_0" index="0" speed="13.89" length="15.83" shape="19886.45,21374.48 19889.88,21372.66 19893.19,21370.33 19896.17,21367.62 19898.63,21364.63"/>
    </edge>
    <edge id=":1023_14" function="internal">
        <lane id=":1023_14_0" index="0" speed="13.89" length="3.66" shape="19886.45,21374.48 19889.94,21373.37"/>
    </edge>
    <edge id=":1023_15" function="internal">
        <lane id=":1023_15_0" index="0" speed="3.65" length="1.44" shape="19886.45,21374.48 19887.87,21374.72"/>
    </edge>
    <edge id=":1023_22" function="internal">
        <lane id=":1023_22_0" index="0" speed="13.89" length="13.77" shape="19889.94,21373.37 19890.39,21373.23 19894.95,21372.60 19899.54,21372.65 19903.56,21373.47"/>
    </edge>
    <edge id=":1023_23" function="internal">
        <lane id=":1023_23_0" index="0" speed="3.65" length="3.23" shape="19887.87,21374.72 19888.57,21375.29 19888.53,21376.18 19887.76,21377.40"/>
    </edge>
    <edge id=":1026_0" function="internal">
        <lane id=":1026_0_0" index="0" speed="5.87" length="9.11" shape="35752.36,24144.13 35751.07,24141.82 35749.48,24140.77 35747.58,24140.98 35745.38,24142.44"/>
    </edge>
    <edge id=":1026_1" function="internal">
        <lane id=":1026_1_0" index="0" speed="13.89" length="14.94" shape="35752.36,24144.13 35747.11,24130.14"/>
    </edge>
    <edge id=":1026_2" function="internal">
        <lane id=":1026_2_0" index="0" speed="7.53" length="4.58" shape="35752.36,24144.13 35751.32,24139.67"/>
    </edge>
    <edge id=":1026_3" function="internal">
        <lane id=":1026_3_0" index="0" speed="3.65" length="1.44" shape="35752.36,24144.13 35752.68,24142.72"/>
    </edge>
    <edge id=":1026_16" function="internal">
        <lane id=":1026_16_0" index="0" speed="7.53" length="11.18" shape="35751.32,24139.67 35752.13,24136.46 35754.78,24134.48 35759.28,24133.75"/>
    </edge>
    <edge id=":1026_17" function="internal">
        <lane id=":1026_17_0" index="0" speed="3.65" length="3.23" shape="35752.68,24142.72 35753.28,24142.06 35754.17,24142.15 35755.35,24142.98"/>
    </edge>
    <edge id=":1026_4" function="internal">
        <lane id=":1026_4_0" index="0" speed="5.89" length="9.14" shape="35759.35,24136.95 35756.74,24137.37 35755.21,24138.52 35754.74,24140.39 35755.35,24142.98"/>
    </edge>
    <edge id=":1026_5" function="internal">
        <lane id=":1026_5_0" index="0" speed="13.89" length="15.29" shape="35759.35,24136.95 35755.58,24137.38 35751.89,24138.49 35748.43,24140.20 35745.38,24142.44"/>
    </edge>
    <edge id=":1026_6" function="internal">
        <lane id=":1026_6_0" index="0" speed="9.40" length="3.27" shape="35759.35,24136.95 35756.09,24136.69"/>
    </edge>
    <edge id=":1026_7" function="internal">
        <lane id=":1026_7_0" index="0" speed="3.65" length="1.32" shape="35759.35,24136.95 35758.23,24136.24"/>
    </edge>
    <edge id=":1026_18" function="internal">
        <lane id=":1026_18_0" index="0" speed="9.40" length="11.76" shape="35756.09,24136.69 35754.94,24136.60 35751.43,24135.35 35748.82,24133.20 35747.11,24130.14"/>
    </edge>
    <edge id=":1026_19" function="internal">
        <lane id=":1026_19_0" index="0" speed="3.65" length="3.35" shape="35758.23,24136.24 35758.13,24136.17 35757.71,24135.38 35758.10,24134.57 35759.28,24133.75"/>
    </edge>
    <edge id=":1026_8" function="internal">
        <lane id=":1026_8_0" index="0" speed="8.13" length="11.03" shape="35750.12,24129.06 35751.34,24131.17 35753.28,24132.65 35755.93,24133.51 35759.28,24133.75"/>
    </edge>
    <edge id=":1026_9" function="internal">
        <lane id=":1026_9_0" index="0" speed="13.89" length="14.87" shape="35750.12,24129.06 35755.35,24142.98"/>
    </edge>
    <edge id=":1026_10" function="internal">
        <lane id=":1026_10_0" index="0" speed="9.69" length="3.60" shape="35750.12,24129.06 35750.76,24132.50 35750.74,24132.60"/>
    </edge>
    <edge id=":1026_11" function="internal">
        <lane id=":1026_11_0" index="0" speed="3.65" length="1.44" shape="35750.12,24129.06 35749.77,24130.46"/>
    </edge>
    <edge id=":1026_20" function="internal">
        <lane id=":1026_20_0" index="0" speed="9.69" length="11.52" shape="35750.74,24132.60 35750.18,24135.88 35748.39,24139.19 35745.38,24142.44"/>
    </edge>
    <edge id=":1026_21" function="internal">
        <lane id=":1026_21_0" index="0" speed="3.65" length="3.23" shape="35749.77,24130.46 35749.15,24131.11 35748.27,24131.00 35747.11,24130.14"/>
    </edge>
    <edge id=":1026_12" function="internal">
        <lane id=":1026_12_0" index="0" speed="8.45" length="11.30" shape="35743.25,24140.05 35745.60,24137.56 35747.03,24135.07 35747.53,24132.60 35747.11,24130.14"/>
    </edge>
    <edge id=":1026_13" function="internal">
        <lane id=":1026_13_0" index="0" speed="13.89" length="17.48" shape="35743.25,24140.05 35746.63,24137.68 35750.79,24135.69 35755.19,24134.31 35759.28,24133.75"/>
    </edge>
    <edge id=":1026_14" function="internal">
        <lane id=":1026_14_0" index="0" speed="7.52" length="5.79" shape="35743.25,24140.05 35747.07,24137.51 35748.26,24137.38"/>
    </edge>
    <edge id=":1026_15" function="internal">
        <lane id=":1026_15_0" index="0" speed="3.65" length="1.44" shape="35743.25,24140.05 35744.68,24139.85"/>
    </edge>
    <edge id=":1026_22" function="internal">
        <lane id=":1026_22_0" index="0" speed="7.52" length="9.99" shape="35748.26,24137.38 35750.35,24137.16 35753.11,24138.98 35755.35,24142.98"/>
    </edge>
    <edge id=":1026_23" function="internal">
        <lane id=":1026_23_0" index="0" speed="3.65" length="3.23" shape="35744.68,24139.85 35745.51,24140.18 35745.74,24141.05 35745.38,24142.44"/>
    </edge>
    <edge id=":1030_0" function="internal">
        <lane id=":1030_0_0" index="0" speed="6.28" length="12.33" shape="34427.96,23966.23 34424.80,23968.31 34422.43,23968.47 34420.85,23966.69 34420.05,23962.99"/>
    </edge>
    <edge id=":1030_1" function="internal">
        <lane id=":1030_1_0" index="0" speed="4.01" length="4.11" shape="34423.24,23962.72 34423.51,23963.95 34424.03,23964.54 34424.82,23964.49 34425.88,23963.80"/>
    </edge>
    <edge id=":1053_0" function="internal">
        <lane id=":1053_0_0" index="0" speed="6.71" length="3.79" shape="33296.67,22187.21 33295.75,22186.60 33295.19,22186.05 33294.84,22185.35 33294.54,22184.28"/>
    </edge>
    <edge id=":1053_1" function="internal">
        <lane id=":1053_1_0" index="0" speed="4.23" length="1.26" shape="33297.65,22183.52 33297.75,22183.87 33297.86,22184.11 33298.05,22184.29 33298.36,22184.49"/>
    </edge>
    <edge id=":1061_0" function="internal">
        <lane id=":1061_0_0" index="0" speed="9.97" length="13.72" shape="26962.39,15360.21 26958.75,15358.29 26955.38,15357.33 26952.28,15357.34 26949.44,15358.30"/>
    </edge>
    <edge id=":1061_1" function="internal">
        <lane id=":1061_1_0" index="0" speed="13.89" length="17.43" shape="26962.39,15360.21 26959.04,15357.77 26955.62,15354.69 26952.58,15351.26 26950.39,15347.79"/>
    </edge>
    <edge id=":1061_2" function="internal">
        <lane id=":1061_2_0" index="0" speed="7.39" length="5.76" shape="26962.39,15360.21 26958.39,15356.87 26958.20,15356.36"/>
    </edge>
    <edge id=":1061_3" function="internal">
        <lane id=":1061_3_0" index="0" speed="3.65" length="1.44" shape="26962.39,15360.21 26961.80,15358.89"/>
    </edge>
    <edge id=":1061_16" function="internal">
        <lane id=":1061_16_0" index="0" speed="7.39" length="11.41" shape="26958.20,15356.36 26957.19,15353.72 26958.80,15350.75 26963.21,15347.98"/>
    </edge>
    <edge id=":1061_17" function="internal">
        <lane id=":1061_17_0" index="0" speed="3.65" length="3.23" shape="26961.80,15358.89 26961.90,15358.00 26962.66,15357.54 26964.11,15357.51"/>
    </edge>
    <edge id=":1061_4" function="internal">
        <lane id=":1061_4_0" index="0" speed="5.62" length="9.30" shape="26964.55,15350.88 26962.16,15352.39 26961.29,15353.99 26961.94,15355.70 26964.11,15357.51"/>
    </edge>
    <edge id=":1061_5" function="internal">
        <lane id=":1061_5_0" index="0" speed="13.89" length="16.83" shape="26964.55,15350.88 26949.44,15358.30"/>
    </edge>
    <edge id=":1061_6" function="internal">
        <lane id=":1061_6_0" index="0" speed="8.60" length="5.04" shape="26964.55,15350.88 26959.77,15352.49"/>
    </edge>
    <edge id=":1061_7" function="internal">
        <lane id=":1061_7_0" index="0" speed="3.65" length="1.44" shape="26964.55,15350.88 26963.12,15350.66"/>
    </edge>
    <edge id=":1061_18" function="internal">
        <lane id=":1061_18_0" index="0" speed="8.60" length="11.35" shape="26959.77,15352.49 26955.81,15352.51 26952.69,15350.94 26950.39,15347.79"/>
    </edge>