<?xml version="1.0" encoding="UTF-8"?>

<!-- generated on 2025-03-26 03:36:18 by Eclipse SUMO netgenerate Version 1.22.0
<netgenerateConfiguration xmlns:xsi="http://www.w3.org/2001/XMLSchema-instance" xsi:noNamespaceSchemaLocation="http://sumo.dlr.de/xsd/netgenerateConfiguration.xsd">

    <random_network>
        <rand value="true"/>
        <rand.iterations value="361"/>
        <rand.max-distance value="2232.2856487836366"/>
        <rand.min-distance value="722.0117215127855"/>
        <rand.min-angle value="49.44471500855038"/>
        <rand.neighbor-dist1 value="1.0"/>
        <rand.neighbor-dist2 value="10.0"/>
        <rand.neighbor-dist3 value="5.0"/>
        <rand.neighbor-dist4 value="5.0"/>
        <rand.neighbor-dist5 value="0.0"/>
        <rand.neighbor-dist6 value="0.0"/>
    </random_network>

    <output>
        <output-file value="configs/rand-configs/rand0.net.xml"/>
    </output>

    <tls_building>
        <tls.guess value="true"/>
        <tls.guess.threshold value="0"/>
    </tls_building>

</netgenerateConfiguration>
-->

<net version="1.20" junctionCornerDetail="5" limitTurnSpeed="5.50" xmlns:xsi="http://www.w3.org/2001/XMLSchema-instance" xsi:noNamespaceSchemaLocation="http://sumo.dlr.de/xsd/net_file.xsd">

    <location netOffset="24063.22,7997.45" convBoundary="0.00,0.00,49606.17,31407.24" origBoundary="-24063.22,-7997.45,25542.95,23409.78" projParameter="!"/>

    <edge id=":1_0" function="internal">
        <lane id=":1_0_0" index="0" speed="5.98" length="9.08" shape="24061.75,8005.75 24061.34,8003.18 24060.21,8001.60 24058.36,8001.02 24055.79,8001.43"/>
    </edge>
    <edge id=":1_1" function="internal">
        <lane id=":1_1_0" index="0" speed="13.89" length="14.86" shape="24061.75,8005.75 24061.61,8002.02 24061.30,7998.34 24060.78,7994.67 24060.03,7991.02"/>
    </edge>
    <edge id=":1_2" function="internal">
        <lane id=":1_2_0" index="0" speed="8.09" length="4.36" shape="24061.75,8005.75 24062.25,8001.41"/>
    </edge>
    <edge id=":1_3" function="internal">
        <lane id=":1_3_0" index="0" speed="3.65" length="1.44" shape="24061.75,8005.75 24062.53,8004.54"/>
    </edge>
    <edge id=":1_16" function="internal">
        <lane id=":1_16_0" index="0" speed="8.09" length="10.76" shape="24062.25,8001.41 24063.90,7998.37 24066.70,7996.61 24070.65,7996.13"/>
    </edge>
    <edge id=":1_17" function="internal">
        <lane id=":1_17_0" index="0" speed="3.65" length="3.23" shape="24062.53,8004.54 24063.33,8004.13 24064.13,8004.51 24064.95,8005.70"/>
    </edge>
    <edge id=":1_4" function="internal">
        <lane id=":1_4_0" index="0" speed="6.62" length="9.76" shape="24070.53,7999.33 24068.05,7999.65 24066.29,8000.82 24065.26,8002.83 24064.95,8005.70"/>
    </edge>
    <edge id=":1_5" function="internal">
        <lane id=":1_5_0" index="0" speed="13.89" length="14.95" shape="24070.53,7999.33 24066.79,7999.37 24063.08,7999.76 24059.41,8000.45 24055.79,8001.43"/>
    </edge>
    <edge id=":1_6" function="internal">
        <lane id=":1_6_0" index="0" speed="9.03" length="3.93" shape="24070.53,7999.33 24066.66,7998.69"/>
    </edge>
    <edge id=":1_7" function="internal">
        <lane id=":1_7_0" index="0" speed="3.65" length="1.44" shape="24070.53,7999.33 24069.36,7998.49"/>
    </edge>
    <edge id=":1_18" function="internal">
        <lane id=":1_18_0" index="0" speed="9.03" length="10.59" shape="24066.66,7998.69 24063.61,7997.09 24061.41,7994.54 24060.03,7991.02"/>
    </edge>
    <edge id=":1_19" function="internal">
        <lane id=":1_19_0" index="0" speed="3.65" length="3.23" shape="24069.36,7998.49 24068.99,7997.67 24069.42,7996.89 24070.65,7996.13"/>
    </edge>
    <edge id=":1_8" function="internal">
        <lane id=":1_8_0" index="0" speed="7.70" length="10.32" shape="24063.14,7990.28 24064.12,7992.75 24065.70,7994.55 24067.87,7995.68 24070.65,7996.13"/>
    </edge>
    <edge id=":1_9" function="internal">
        <lane id=":1_9_0" index="0" speed="13.89" length="15.56" shape="24063.14,7990.28 24063.91,7994.03 24064.45,7997.94 24064.80,8001.87 24064.95,8005.70"/>
    </edge>
    <edge id=":1_10" function="internal">
        <lane id=":1_10_0" index="0" speed="8.41" length="4.08" shape="24063.14,7990.28 24063.43,7994.07 24063.33,7994.33"/>
    </edge>
    <edge id=":1_11" function="internal">
        <lane id=":1_11_0" index="0" speed="3.65" length="1.44" shape="24063.14,7990.28 24062.64,7991.63"/>
    </edge>
    <edge id=":1_20" function="internal">
        <lane id=":1_20_0" index="0" speed="8.41" length="10.92" shape="24063.33,7994.33 24062.30,7997.20 24059.75,7999.65 24055.79,8001.43"/>
    </edge>
    <edge id=":1_21" function="internal">
        <lane id=":1_21_0" index="0" speed="3.65" length="3.23" shape="24062.64,7991.63 24061.96,7992.21 24061.09,7992.00 24060.03,7991.02"/>
    </edge>
    <edge id=":1_12" function="internal">
        <lane id=":1_12_0" index="0" speed="7.00" length="10.09" shape="24054.85,7998.38 24057.60,7997.17 24059.38,7995.54 24060.19,7993.49 24060.03,7991.02"/>
    </edge>
    <edge id=":1_13" function="internal">
        <lane id=":1_13_0" index="0" speed="13.89" length="16.03" shape="24054.85,7998.38 24058.63,7997.38 24062.67,7996.63 24066.75,7996.20 24070.65,7996.13"/>
    </edge>
    <edge id=":1_14" function="internal">
        <lane id=":1_14_0" index="0" speed="7.59" length="4.78" shape="24054.85,7998.38 24059.20,7997.68 24059.55,7997.79"/>
    </edge>
    <edge id=":1_15" function="internal">
        <lane id=":1_15_0" index="0" speed="3.65" length="1.44" shape="24054.85,7998.38 24056.23,7998.79"/>
    </edge>
    <edge id=":1_22" function="internal">
        <lane id=":1_22_0" index="0" speed="7.59" length="10.63" shape="24059.55,7997.79 24062.34,7998.67 24064.26,8001.34 24064.95,8005.70"/>
    </edge>
    <edge id=":1_23" function="internal">
        <lane id=":1_23_0" index="0" speed="3.65" length="3.23" shape="24056.23,7998.79 24056.85,7999.43 24056.70,8000.31 24055.79,8001.43"/>
    </edge>
    <edge id=":10_0" function="internal">
        <lane id=":10_0_0" index="0" speed="6.76" length="9.42" shape="22702.61,8427.64 22701.29,8425.33 22699.60,8423.94 22697.55,8423.46 22695.13,8423.90"/>
    </edge>
    <edge id=":10_1" function="internal">
        <lane id=":10_1_0" index="0" speed="7.85" length="14.54" shape="22702.61,8427.64 22701.62,8423.72 22702.18,8420.54 22704.28,8418.08 22707.93,8416.34"/>
    </edge>
    <edge id=":10_2" function="internal">
        <lane id=":10_2_0" index="0" speed="3.65" length="1.44" shape="22702.61,8427.64 22702.89,8426.22"/>
    </edge>
    <edge id=":10_9" function="internal">
        <lane id=":10_9_0" index="0" speed="3.65" length="3.23" shape="22702.89,8426.22 22703.48,8425.55 22704.37,8425.62 22705.57,8426.42"/>
    </edge>
    <edge id=":10_3" function="internal">
        <lane id=":10_3_0" index="0" speed="6.32" length="9.04" shape="22708.88,8419.40 22706.61,8420.48 22705.30,8422.01 22704.96,8423.99 22705.57,8426.42"/>
    </edge>
    <edge id=":10_4" function="internal">
        <lane id=":10_4_0" index="0" speed="13.89" length="14.47" shape="22708.88,8419.40 22695.13,8423.90"/>
    </edge>
    <edge id=":10_5" function="internal">
        <lane id=":10_5_0" index="0" speed="3.65" length="1.44" shape="22708.88,8419.40 22707.49,8418.99"/>
    </edge>
    <edge id=":10_10" function="internal">
        <lane id=":10_10_0" index="0" speed="3.65" length="3.23" shape="22707.49,8418.99 22706.87,8418.35 22707.02,8417.46 22707.93,8416.34"/>
    </edge>
    <edge id=":10_6" function="internal">
        <lane id=":10_6_0" index="0" speed="13.89" length="14.57" shape="22694.08,8420.88 22707.93,8416.34"/>
    </edge>
    <edge id=":10_7" function="internal">
        <lane id=":10_7_0" index="0" speed="8.22" length="4.08" shape="22694.08,8420.88 22697.82,8420.18 22698.09,8420.24"/>
    </edge>
    <edge id=":10_8" function="internal">
        <lane id=":10_8_0" index="0" speed="3.65" length="1.44" shape="22694.08,8420.88 22695.47,8421.24"/>
    </edge>
    <edge id=":10_11" function="internal">
        <lane id=":10_11_0" index="0" speed="8.22" length="10.28" shape="22698.09,8420.24 22700.99,8420.87 22703.57,8422.95 22705.57,8426.42"/>
    </edge>
    <edge id=":10_12" function="internal">
        <lane id=":10_12_0" index="0" speed="3.65" length="3.23" shape="22695.47,8421.24 22696.11,8421.87 22696.00,8422.76 22695.13,8423.90"/>
    </edge>
    <edge id=":1027_0" function="internal">
        <lane id=":1027_0_0" index="0" speed="6.37" length="13.20" shape="23950.99,20577.87 23948.97,20581.47 23946.85,20582.73 23944.62,20581.66 23942.29,20578.26"/>
    </edge>
    <edge id=":1027_1" function="internal">
        <lane id=":1027_1_0" index="0" speed="4.05" length="4.40" shape="23945.13,20576.78 23945.91,20577.91 23946.65,20578.27 23947.36,20577.85 23948.03,20576.65"/>
    </edge>
    <edge id=":1029_0" function="internal">
        <lane id=":1029_0_0" index="0" speed="5.82" length="9.14" shape="23343.08,19427.40 23341.53,19425.23 23339.83,19424.37 23338.00,19424.85 23336.02,19426.64"/>
    </edge>
    <edge id=":1029_1" function="internal">
        <lane id=":1029_1_0" index="0" speed="13.24" length="14.63" shape="23343.08,19427.40 23341.47,19424.02 23340.30,19420.55 23339.78,19417.00 23340.18,19413.39"/>
    </edge>
    <edge id=":1029_2" function="internal">
        <lane id=":1029_2_0" index="0" speed="3.65" length="1.44" shape="23343.08,19427.40 23343.23,19425.97"/>
    </edge>
    <edge id=":1029_9" function="internal">
        <lane id=":1029_9_0" index="0" speed="3.65" length="3.23" shape="23343.23,19425.97 23343.76,19425.25 23344.65,19425.23 23345.91,19425.93"/>
    </edge>
    <edge id=":1029_3" function="internal">
        <lane id=":1029_3_0" index="0" speed="12.21" length="12.39" shape="23343.28,19414.19 23342.84,19417.44 23343.26,19420.21 23344.35,19422.90 23345.91,19425.93"/>
    </edge>
    <edge id=":1029_4" function="internal">
        <lane id=":1029_4_0" index="0" speed="13.89" length="14.54" shape="23343.28,19414.19 23342.07,19417.64 23340.38,19420.79 23338.33,19423.76 23336.02,19426.64"/>
    </edge>
    <edge id=":1029_5" function="internal">
        <lane id=":1029_5_0" index="0" speed="3.65" length="1.44" shape="23343.28,19414.19 23342.21,19415.15"/>
    </edge>
    <edge id=":1029_10" function="internal">
        <lane id=":1029_10_0" index="0" speed="3.65" length="3.23" shape="23342.21,19415.15 23341.33,19415.34 23340.66,19414.75 23340.18,19413.39"/>
    </edge>
    <edge id=":1029_6" function="internal">
        <lane id=":1029_6_0" index="0" speed="13.89" length="13.14" shape="23333.56,19424.60 23335.77,19421.91 23337.60,19419.37 23339.07,19416.64 23340.18,19413.39"/>
    </edge>
    <edge id=":1029_7" function="internal">
        <lane id=":1029_7_0" index="0" speed="7.48" length="4.28" shape="23333.56,19424.60 23336.73,19421.71"/>
    </edge>
    <edge id=":1029_8" function="internal">
        <lane id=":1029_8_0" index="0" speed="3.65" length="1.44" shape="23333.56,19424.60 23334.94,19424.19"/>
    </edge>
    <edge id=":1029_11" function="internal">
        <lane id=":1029_11_0" index="0" speed="7.48" length="11.71" shape="23336.73,19421.71 23337.02,19421.45 23340.24,19420.62 23343.20,19422.11 23345.91,19425.93"/>
    </edge>
    <edge id=":1029_12" function="internal">
        <lane id=":1029_12_0" index="0" speed="3.65" length="3.23" shape="23334.94,19424.19 23335.81,19424.39 23336.17,19425.21 23336.02,19426.64"/>
    </edge>
    <edge id=":1039_0" function="internal">
        <lane id=":1039_0_0" index="0" speed="3.91" length="2.44" shape="19346.86,12523.91 19346.32,12523.53 19345.78,12523.40 19345.23,12523.53 19344.69,12523.90"/>
    </edge>
    <edge id=":1039_1" function="internal">
        <lane id=":1039_1_0" index="0" speed="6.09" length="7.32" shape="19342.52,12521.55 19344.15,12520.42 19345.78,12520.05 19347.41,12520.43 19349.04,12521.57"/>
    </edge>
    <edge id=":106_0" function="internal">
        <lane id=":106_0_0" index="0" speed="6.55" length="7.89" shape="28329.10,9318.01 28328.45,9316.00 28327.32,9314.56 28325.71,9313.69 28323.62,9313.39"/>
    </edge>
    <edge id=":106_1" function="internal">
        <lane id=":106_1_0" index="0" speed="8.87" length="12.02" shape="28329.10,9318.01 28328.89,9314.75 28329.51,9311.91 28330.94,9309.48 28333.20,9307.46"/>
    </edge>
    <edge id=":106_2" function="internal">
        <lane id=":106_2_0" index="0" speed="3.65" length="1.44" shape="28329.10,9318.01 28329.68,9316.69"/>
    </edge>
    <edge id=":106_9" function="internal">
        <lane id=":106_9_0" index="0" speed="3.65" length="3.23" shape="28329.68,9316.69 28330.40,9316.15 28331.25,9316.41 28332.25,9317.45"/>
    </edge>
    <edge id=":106_3" function="internal">
        <lane id=":106_3_0" index="0" speed="7.47" length="8.32" shape="28335.00,9310.11 28333.47,9311.49 28332.50,9313.17 28332.10,9315.16 28332.25,9317.45"/>
    </edge>
    <edge id=":106_4" function="internal">
        <lane id=":106_4_0" index="0" speed="13.89" length="12.08" shape="28335.00,9310.11 28332.18,9311.81 28329.63,9312.81 28326.92,9313.28 28323.62,9313.39"/>
    </edge>
    <edge id=":106_5" function="internal">
        <lane id=":106_5_0" index="0" speed="3.65" length="1.44" shape="28335.00,9310.11 28333.56,9310.12"/>
    </edge>
    <edge id=":106_10" function="internal">
        <lane id=":106_10_0" index="0" speed="3.65" length="3.23" shape="28333.56,9310.12 28332.78,9309.69 28332.66,9308.80 28333.20,9307.46"/>
    </edge>
    <edge id=":106_6" function="internal">
        <lane id=":106_6_0" index="0" speed="13.03" length="10.22" shape="28323.64,9310.19 28326.65,9310.17 28328.74,9309.88 28330.67,9309.07 28333.20,9307.46"/>
    </edge>
    <edge id=":106_7" function="internal">
        <lane id=":106_7_0" index="0" speed="8.05" length="3.45" shape="28323.64,9310.19 28326.92,9310.66 28327.04,9310.72"/>
    </edge>
    <edge id=":106_8" function="internal">
        <lane id=":106_8_0" index="0" speed="3.65" length="1.44" shape="28323.64,9310.19 28324.83,9311.00"/>
    </edge>
    <edge id=":106_11" function="internal">
        <lane id=":106_11_0" index="0" speed="8.05" length="8.94" shape="28327.04,9310.72 28329.45,9312.02 28331.23,9314.29 28332.25,9317.45"/>
    </edge>
    <edge id=":106_12" function="internal">
        <lane id=":106_12_0" index="0" speed="3.65" length="3.23" shape="28324.83,9311.00 28325.23,9311.80 28324.82,9312.60 28323.62,9313.39"/>
    </edge>
    <edge id=":110_0" function="internal">
        <lane id=":110_0_0" index="0" speed="6.36" length="4.75" shape="25316.25,10407.50 25315.14,10408.03 25314.01,10408.25 25312.87,10408.17 25311.71,10407.78"/>
    </edge>
    <edge id=":110_1" function="internal">
        <lane id=":110_1_0" index="0" speed="4.05" length="1.58" shape="25313.05,10404.87 25313.44,10405.00 25313.82,10405.03 25314.19,10404.96 25314.56,10404.78"/>
    </edge>
    <edge id=":1143_0" function="internal">
        <lane id=":1143_0_0" index="0" speed="13.89" length="0.89" shape="20840.63,19648.50 20840.47,19648.71 20840.35,19648.85 20840.23,19648.98 20840.03,19649.16"/>
    </edge>
    <edge id=":1143_1" function="internal">
        <lane id=":1143_1_0" index="0" speed="13.89" length="0.30" shape="20837.86,19646.81 20837.93,19646.75 20837.97,19646.71 20838.01,19646.66 20838.06,19646.59"/>
    </edge>
    <edge id=":1149_0" function="internal">
        <lane id=":1149_0_0" index="0" speed="10.81" length="19.91" shape="28863.35,15123.91 28868.07,15126.59 28871.35,15130.07 28873.18,15134.33 28873.57,15139.37"/>
    </edge>
    <edge id=":1149_1" function="internal">
        <lane id=":1149_1_0" index="0" speed="7.38" length="8.22" shape="28863.35,15123.91 28868.23,15126.70 28869.54,15128.94"/>
    </edge>
    <edge id=":1149_2" function="internal">
        <lane id=":1149_2_0" index="0" speed="3.65" length="1.44" shape="28863.35,15123.91 28864.14,15125.12"/>
    </edge>
    <edge id=":1149_9" function="internal">
        <lane id=":1149_9_0" index="0" speed="7.38" length="9.88" shape="28869.54,15128.94 28869.96,15129.65 28868.53,15132.75 28863.94,15136.01"/>
    </edge>
    <edge id=":1149_10" function="internal">
        <lane id=":1149_10_0" index="0" speed="3.65" length="3.23" shape="28864.14,15125.12 28864.20,15126.01 28863.52,15126.59 28862.11,15126.86"/>
    </edge>
    <edge id=":1149_3" function="internal">
        <lane id=":1149_3_0" index="0" speed="5.53" length="9.47" shape="28862.42,15133.20 28864.82,15131.49 28865.57,15129.87 28864.67,15128.33 28862.11,15126.86"/>
    </edge>
    <edge id=":1149_4" function="internal">
        <lane id=":1149_4_0" index="0" speed="7.52" length="17.68" shape="28862.42,15133.20 28867.59,15131.16 28871.18,15131.51 28873.17,15134.25 28873.57,15139.37"/>
    </edge>
    <edge id=":1149_5" function="internal">
        <lane id=":1149_5_0" index="0" speed="3.65" length="1.44" shape="28862.42,15133.20 28863.86,15133.33"/>
    </edge>
    <edge id=":1149_11" function="internal">
        <lane id=":1149_11_0" index="0" speed="3.65" length="3.23" shape="28863.86,15133.33 28864.59,15133.84 28864.62,15134.74 28863.94,15136.01"/>
    </edge>
    <edge id=":1149_6" function="internal">
        <lane id=":1149_6_0" index="0" speed="5.80" length="9.91" shape="28870.37,15139.17 28870.13,15136.40 28868.98,15134.95 28866.92,15134.82 28863.94,15136.01"/>
    </edge>
    <edge id=":1149_7" function="internal">
        <lane id=":1149_7_0" index="0" speed="9.71" length="15.93" shape="28870.37,15139.17 28870.06,15135.17 28868.58,15131.79 28865.93,15129.02 28862.11,15126.86"/>
    </edge>
    <edge id=":1149_8" function="internal">
        <lane id=":1149_8_0" index="0" speed="3.65" length="1.31" shape="28870.37,15139.17 28871.16,15138.13"/>
    </edge>
    <edge id=":1149_12" function="internal">
        <lane id=":1149_12_0" index="0" speed="3.65" length="3.37" shape="28871.16,15138.13 28871.25,15138.03 28872.07,15137.68 28872.84,15138.13 28873.57,15139.37"/>
    </edge>
    <edge id=":1163_0" function="internal">
        <lane id=":1163_0_0" index="0" speed="6.23" length="11.73" shape="21978.51,21056.28 21975.90,21058.69 21973.65,21059.23 21971.77,21057.89 21970.25,21054.68"/>
    </edge>
    <edge id=":1163_1" function="internal">
        <lane id=":1163_1_0" index="0" speed="3.98" length="3.91" shape="21973.30,21053.70 21973.81,21054.77 21974.43,21055.22 21975.18,21055.04 21976.05,21054.23"/>
    </edge>
    <edge id=":1168_0" function="internal">
        <lane id=":1168_0_0" index="0" speed="5.97" length="9.09" shape="16306.16,16474.31 16304.41,16472.38 16302.61,16471.67 16300.75,16472.20 16298.82,16473.96"/>
    </edge>
    <edge id=":1168_1" function="internal">
        <lane id=":1168_1_0" index="0" speed="13.89" length="15.09" shape="16306.16,16474.31 16297.63,16461.86"/>
    </edge>
    <edge id=":1168_2" function="internal">
        <lane id=":1168_2_0" index="0" speed="7.97" length="4.38" shape="16306.16,16474.31 16304.22,16470.38"/>
    </edge>
    <edge id=":1168_3" function="internal">
        <lane id=":1168_3_0" index="0" speed="3.65" length="1.44" shape="16306.16,16474.31 16306.15,16472.87"/>
    </edge>
    <edge id=":1168_16" function="internal">
        <lane id=":1168_16_0" index="0" speed="7.97" length="10.81" shape="16304.22,16470.38 16304.01,16466.95 16305.53,16464.02 16308.79,16461.59"/>
    </edge>
    <edge id=":1168_17" function="internal">
        <lane id=":1168_17_0" index="0" speed="3.65" length="3.23" shape="16306.15,16472.87 16306.59,16472.09 16307.48,16471.97 16308.81,16472.52"/>
    </edge>
    <edge id=":1168_4" function="internal">
        <lane id=":1168_4_0" index="0" speed="6.47" length="9.63" shape="16310.29,16464.42 16308.28,16465.94 16307.36,16467.79 16307.54,16469.99 16308.81,16472.52"/>
    </edge>
    <edge id=":1168_5" function="internal">
        <lane id=":1168_5_0" index="0" speed="13.89" length="15.01" shape="16310.29,16464.42 16307.08,16466.35 16304.09,16468.62 16301.33,16471.17 16298.82,16473.96"/>
    </edge>
    <edge id=":1168_6" function="internal">
        <lane id=":1168_6_0" index="0" speed="8.43" length="3.75" shape="16310.29,16464.42 16306.77,16465.74"/>
    </edge>
    <edge id=":1168_7" function="internal">
        <lane id=":1168_7_0" index="0" speed="3.65" length="1.44" shape="16310.29,16464.42 16308.85,16464.27"/>
    </edge>
    <edge id=":1168_18" function="internal">
        <lane id=":1168_18_0" index="0" speed="8.43" length="10.59" shape="16306.77,16465.74 16306.52,16465.83 16303.16,16465.88 16300.19,16464.55 16297.63,16461.86"/>
    </edge>
    <edge id=":1168_19" function="internal">
        <lane id=":1168_19_0" index="0" speed="3.65" length="3.23" shape="16308.85,16464.27 16308.12,16463.75 16308.10,16462.86 16308.79,16461.59"/>
    </edge>
    <edge id=":1168_8" function="internal">
        <lane id=":1168_8_0" index="0" speed="7.01" length="9.64" shape="16300.25,16460.03 16301.95,16461.79 16303.94,16462.63 16306.22,16462.57 16308.79,16461.59"/>
    </edge>
    <edge id=":1168_9" function="internal">
        <lane id=":1168_9_0" index="0" speed="13.89" length="15.15" shape="16300.25,16460.03 16308.81,16472.52"/>
    </edge>
    <edge id=":1168_10" function="internal">
        <lane id=":1168_10_0" index="0" speed="9.21" length="3.96" shape="16300.25,16460.03 16301.89,16463.37 16301.91,16463.60"/>
    </edge>
    <edge id=":1168_11" function="internal">
        <lane id=":1168_11_0" index="0" speed="3.65" length="1.44" shape="16300.25,16460.03 16300.29,16461.47"/>
    </edge>
    <edge id=":1168_20" function="internal">
        <lane id=":1168_20_0" index="0" speed="9.21" length="11.21" shape="16301.91,16463.60 16302.20,16466.80 16301.18,16470.33 16298.82,16473.96"/>
    </edge>
    <edge id=":1168_21" function="internal">
        <lane id=":1168_21_0" index="0" speed="3.65" length="3.23" shape="16300.29,16461.47 16299.86,16462.26 16298.97,16462.39 16297.63,16461.86"/>
    </edge>
    <edge id=":1168_12" function="internal">
        <lane id=":1168_12_0" index="0" speed="7.91" length="10.98" shape="16296.35,16471.92 16298.12,16469.25 16298.92,16466.68 16298.76,16464.21 16297.63,16461.86"/>
    </edge>
    <edge id=":1168_13" function="internal">
        <lane id=":1168_13_0" index="0" speed="13.89" length="16.26" shape="16296.35,16471.92 16299.01,16469.01 16302.10,16466.18 16305.43,16463.65 16308.79,16461.59"/>
    </edge>
    <edge id=":1168_14" function="internal">
        <lane id=":1168_14_0" index="0" speed="7.58" length="4.88" shape="16296.35,16471.92 16299.62,16468.94 16300.05,16468.82"/>
    </edge>
    <edge id=":1168_15" function="internal">
        <lane id=":1168_15_0" index="0" speed="3.65" length="1.44" shape="16296.35,16471.92 16297.73,16471.51"/>
    </edge>
    <edge id=":1168_22" function="internal">
        <lane id=":1168_22_0" index="0" speed="7.58" length="10.56" shape="16300.05,16468.82 16302.78,16468.04 16305.85,16469.24 16308.81,16472.52"/>
    </edge>
    <edge id=":1168_23" function="internal">
        <lane id=":1168_23_0" index="0" speed="3.65" length="3.23" shape="16297.73,16471.51 16298.60,16471.71 16298.97,16472.52 16298.82,16473.96"/>
    </edge>
    <edge id=":1175_0" function="internal">
        <lane id=":1175_0_0" index="0" speed="8.64" length="2.03" shape="16909.64,12943.01 16909.22,12942.57 16908.97,12942.25 16908.77,12941.88 16908.55,12941.32"/>
    </edge>
    <edge id=":1175_1" function="internal">
        <lane id=":1175_1_0" index="0" speed="13.89" length="0.68" shape="16911.54,12940.18 16911.62,12940.37 16911.68,12940.49 16911.77,12940.60 16911.91,12940.74"/>
    </edge>
    <edge id=":1183_0" function="internal">
        <lane id=":1183_0_0" index="0" speed="4.01" length="4.10" shape="21314.52,19015.40 21313.98,19014.26 21313.34,19013.80 21312.58,19014.03 21311.71,19014.93"/>
    </edge>
    <edge id=":1183_1" function="internal">
        <lane id=":1183_1_0" index="0" speed="6.28" length="12.29" shape="21309.14,19013.03 21311.76,19010.31 21314.03,19009.63 21315.97,19011.00 21317.56,19014.42"/>
    </edge>
    <edge id=":1191_0" function="internal">
        <lane id=":1191_0_0" index="0" speed="3.65" length="4.67" shape="27430.03,15911.18 27428.60,15911.05 27427.86,15910.54 27427.84,15909.64 27428.51,15908.37"/>
    </edge>
    <edge id=":12_0" function="internal">
        <lane id=":12_0_0" index="0" speed="13.89" length="17.64" shape="24626.61,6409.36 24623.75,6406.36 24620.10,6403.47 24616.15,6400.98 24612.40,6399.16"/>
    </edge>
    <edge id=":12_1" function="internal">
        <lane id=":12_1_0" index="0" speed="13.89" length="19.34" shape="24626.61,6409.36 24624.22,6405.65 24621.85,6400.97 24619.83,6396.12 24618.47,6391.91"/>
    </edge>
    <edge id=":12_2" function="internal">
        <lane id=":12_2_0" index="0" speed="7.49" length="5.40" shape="24626.61,6409.36 24624.30,6405.33 24624.27,6404.58"/>
    </edge>
    <edge id=":12_3" function="internal">
        <lane id=":12_3_0" index="0" speed="3.65" length="1.44" shape="24626.61,6409.36 24626.51,6407.93"/>
    </edge>
    <edge id=":12_16" function="internal">
        <lane id=":12_16_0" index="0" speed="7.49" length="10.53" shape="24624.27,6404.58 24624.18,6402.01 24626.26,6399.43 24630.52,6397.56"/>
    </edge>
    <edge id=":12_17" function="internal">
        <lane id=":12_17_0" index="0" speed="3.65" length="3.23" shape="24626.51,6407.93 24626.89,6407.12 24627.77,6406.95 24629.14,6407.41"/>
    </edge>
    <edge id=":12_4" function="internal">
        <lane id=":12_4_0" index="0" speed="5.83" length="9.13" shape="24631.38,6400.65 24628.94,6401.71 24627.75,6403.20 24627.82,6405.09 24629.14,6407.41"/>
    </edge>
    <edge id=":12_5" function="internal">
        <lane id=":12_5_0" index="0" speed="13.89" length="19.24" shape="24631.38,6400.65 24627.04,6401.24 24621.83,6401.10 24616.65,6400.36 24612.40,6399.16"/>
    </edge>
    <edge id=":12_6" function="internal">
        <lane id=":12_6_0" index="0" speed="8.83" length="5.82" shape="24631.38,6400.65 24626.82,6401.15 24625.66,6400.74"/>
    </edge>
    <edge id=":12_7" function="internal">
        <lane id=":12_7_0" index="0" speed="3.65" length="1.44" shape="24631.38,6400.65 24630.01,6400.20"/>
    </edge>
    <edge id=":12_18" function="internal">
        <lane id=":12_18_0" index="0" speed="8.83" length="12.04" shape="24625.66,6400.74 24623.15,6399.86 24620.37,6396.78 24618.47,6391.91"/>
    </edge>
    <edge id=":12_19" function="internal">
        <lane id=":12_19_0" index="0" speed="3.65" length="3.23" shape="24630.01,6400.20 24629.41,6399.54 24629.58,6398.66 24630.52,6397.56"/>
    </edge>
    <edge id=":12_8" function="internal">
        <lane id=":12_8_0" index="0" speed="7.51" length="12.61" shape="24621.57,6391.13 24622.92,6394.66 24624.86,6396.91 24627.39,6397.88 24630.52,6397.56"/>
    </edge>
    <edge id=":12_9" function="internal">
        <lane id=":12_9_0" index="0" speed="13.89" length="18.04" shape="24621.57,6391.13 24622.84,6395.16 24624.67,6399.60 24626.84,6403.88 24629.14,6407.41"/>
    </edge>
    <edge id=":12_10" function="internal">
        <lane id=":12_10_0" index="0" speed="7.38" length="3.75" shape="24621.57,6391.13 24622.02,6394.85"/>
    </edge>
    <edge id=":12_11" function="internal">
        <lane id=":12_11_0" index="0" speed="3.65" length="1.44" shape="24621.57,6391.13 24621.09,6392.48"/>
    </edge>
    <edge id=":12_20" function="internal">
        <lane id=":12_20_0" index="0" speed="7.38" length="13.85" shape="24622.02,6394.85 24622.22,6396.50 24620.91,6399.62 24617.64,6400.51 24612.40,6399.16"/>
    </edge>
    <edge id=":12_21" function="internal">
        <lane id=":12_21_0" index="0" speed="3.65" length="3.23" shape="24621.09,6392.48 24620.41,6393.07 24619.54,6392.88 24618.47,6391.91"/>
    </edge>
    <edge id=":12_12" function="internal">
        <lane id=":12_12_0" index="0" speed="5.57" length="9.37" shape="24613.59,6396.18 24616.38,6396.91 24618.12,6396.43 24618.82,6394.77 24618.47,6391.91"/>
    </edge>
    <edge id=":12_13" function="internal">
        <lane id=":12_13_0" index="0" speed="13.89" length="17.21" shape="24613.59,6396.18 24617.51,6397.37 24621.99,6398.07 24626.50,6398.18 24630.52,6397.56"/>
    </edge>
    <edge id=":12_14" function="internal">
        <lane id=":12_14_0" index="0" speed="13.89" length="19.32" shape="24613.59,6396.18 24617.55,6398.16 24621.96,6401.01 24626.07,6404.25 24629.14,6407.41"/>
    </edge>
    <edge id=":12_15" function="internal">
        <lane id=":12_15_0" index="0" speed="3.65" length="1.33" shape="24613.59,6396.18 24614.34,6397.28"/>
    </edge>
    <edge id=":12_22" function="internal">
        <lane id=":12_22_0" index="0" speed="3.65" length="3.34" shape="24614.34,6397.28 24614.41,6397.37 24614.48,6398.26 24613.81,6398.86 24612.40,6399.16"/>
    </edge>
    <edge id=":1201_0" function="internal">
        <lane id=":1201_0_0" index="0" speed="10.73" length="13.28" shape="15202.27,14897.38 15199.61,14894.00 15197.02,14891.56 15194.51,14890.06 15192.08,14889.49"/>
    </edge>
    <edge id=":1201_1" function="internal">
        <lane id=":1201_1_0" index="0" speed="7.38" length="17.54" shape="15202.27,14897.38 15199.76,14892.62 15199.87,14889.23 15202.60,14887.22 15207.94,14886.59"/>
    </edge>
    <edge id=":1201_2" function="internal">
        <lane id=":1201_2_0" index="0" speed="3.65" length="1.44" shape="15202.27,14897.38 15202.23,14895.94"/>
    </edge>
    <edge id=":1201_9" function="internal">
        <lane id=":1201_9_0" index="0" speed="3.65" length="3.23" shape="15202.23,14895.94 15202.66,14895.16 15203.55,14895.03 15204.89,14895.55"/>
    </edge>
    <edge id=":1201_3" function="internal">
        <lane id=":1201_3_0" index="0" speed="5.58" length="9.36" shape="15207.92,14889.79 15205.06,14890.13 15203.61,14891.20 15203.55,14893.01 15204.89,14895.55"/>
    </edge>
    <edge id=":1201_4" function="internal">