<configuration><input><net-file value="rand2.net.xml" /></input></configuration>