<?xml version="1.0" encoding="UTF-8"?>

<!-- generated on 2025-03-31 04:16:57 by Eclipse SUMO netgenerate Version 1.22.0
<netgenerateConfiguration xmlns:xsi="http://www.w3.org/2001/XMLSchema-instance" xsi:noNamespaceSchemaLocation="http://sumo.dlr.de/xsd/netgenerateConfiguration.xsd">

    <random_network>
        <rand value="true"/>
        <rand.iterations value="101"/>
        <rand.max-distance value="2729.118541282115"/>
        <rand.min-distance value="819.3504073377942"/>
        <rand.min-angle value="53.74413465559262"/>
        <rand.neighbor-dist1 value="1.0"/>
        <rand.neighbor-dist2 value="10.0"/>
        <rand.neighbor-dist3 value="5.0"/>
        <rand.neighbor-dist4 value="5.0"/>
        <rand.neighbor-dist5 value="0.0"/>
        <rand.neighbor-dist6 value="0.0"/>
    </random_network>

    <output>
        <output-file value="configs/rand-configs/rand4.net.xml"/>
    </output>

    <tls_building>
        <tls.guess value="true"/>
        <tls.guess.threshold value="0"/>
    </tls_building>

</netgenerateConfiguration>
-->

<net version="1.20" junctionCornerDetail="5" limitTurnSpeed="5.50" xmlns:xsi="http://www.w3.org/2001/XMLSchema-instance" xsi:noNamespaceSchemaLocation="http://sumo.dlr.de/xsd/net_file.xsd">

    <location netOffset="11436.27,6339.02" convBoundary="0.00,0.00,27526.60,32902.44" origBoundary="-11436.27,-6339.02,16090.33,26563.42" projParameter="!"/>

    <edge id=":1_0" function="internal">
        <lane id=":1_0_0" index="0" speed="5.98" length="9.08" shape="11434.80,6347.31 11434.39,6344.74 11433.26,6343.17 11431.41,6342.59 11428.84,6343.00"/>
    </edge>
    <edge id=":1_1" function="internal">
        <lane id=":1_1_0" index="0" speed="13.89" length="14.86" shape="11434.80,6347.31 11434.66,6343.59 11434.35,6339.90 11433.83,6336.24 11433.08,6332.59"/>
    </edge>
    <edge id=":1_2" function="internal">
        <lane id=":1_2_0" index="0" speed="8.09" length="4.36" shape="11434.80,6347.31 11435.30,6342.98"/>
    </edge>
    <edge id=":1_3" function="internal">
        <lane id=":1_3_0" index="0" speed="3.65" length="1.44" shape="11434.80,6347.31 11435.58,6346.10"/>
    </edge>
    <edge id=":1_16" function="internal">
        <lane id=":1_16_0" index="0" speed="8.09" length="10.76" shape="11435.30,6342.98 11436.95,6339.93 11439.75,6338.17 11443.70,6337.70"/>
    </edge>
    <edge id=":1_17" function="internal">
        <lane id=":1_17_0" index="0" speed="3.65" length="3.23" shape="11435.58,6346.10 11436.38,6345.69 11437.18,6346.08 11438.00,6347.26"/>
    </edge>
    <edge id=":1_4" function="internal">
        <lane id=":1_4_0" index="0" speed="6.62" length="9.76" shape="11443.58,6340.90 11441.10,6341.21 11439.34,6342.38 11438.31,6344.40 11438.00,6347.26"/>
    </edge>
    <edge id=":1_5" function="internal">
        <lane id=":1_5_0" index="0" speed="13.89" length="14.95" shape="11443.58,6340.90 11439.84,6340.94 11436.13,6341.32 11432.46,6342.02 11428.84,6343.00"/>
    </edge>
    <edge id=":1_6" function="internal">
        <lane id=":1_6_0" index="0" speed="9.03" length="3.93" shape="11443.58,6340.90 11439.71,6340.26"/>
    </edge>
    <edge id=":1_7" function="internal">
        <lane id=":1_7_0" index="0" speed="3.65" length="1.44" shape="11443.58,6340.90 11442.41,6340.05"/>
    </edge>
    <edge id=":1_18" function="internal">
        <lane id=":1_18_0" index="0" speed="9.03" length="10.59" shape="11439.71,6340.26 11436.66,6338.66 11434.46,6336.10 11433.08,6332.59"/>
    </edge>
    <edge id=":1_19" function="internal">
        <lane id=":1_19_0" index="0" speed="3.65" length="3.23" shape="11442.41,6340.05 11442.04,6339.24 11442.47,6338.45 11443.70,6337.70"/>
    </edge>
    <edge id=":1_8" function="internal">
        <lane id=":1_8_0" index="0" speed="7.70" length="10.32" shape="11436.19,6331.84 11437.17,6334.32 11438.75,6336.12 11440.92,6337.24 11443.70,6337.70"/>
    </edge>
    <edge id=":1_9" function="internal">
        <lane id=":1_9_0" index="0" speed="13.89" length="15.56" shape="11436.19,6331.84 11436.96,6335.60 11437.50,6339.50 11437.85,6343.43 11438.00,6347.26"/>
    </edge>
    <edge id=":1_10" function="internal">
        <lane id=":1_10_0" index="0" speed="8.41" length="4.08" shape="11436.19,6331.84 11436.48,6335.64 11436.38,6335.89"/>
    </edge>
    <edge id=":1_11" function="internal">
        <lane id=":1_11_0" index="0" speed="3.65" length="1.44" shape="11436.19,6331.84 11435.69,6333.19"/>
    </edge>
    <edge id=":1_20" function="internal">
        <lane id=":1_20_0" index="0" speed="8.41" length="10.92" shape="11436.38,6335.89 11435.35,6338.76 11432.80,6341.21 11428.84,6343.00"/>
    </edge>
    <edge id=":1_21" function="internal">
        <lane id=":1_21_0" index="0" speed="3.65" length="3.23" shape="11435.69,6333.19 11435.01,6333.77 11434.14,6333.57 11433.08,6332.59"/>
    </edge>
    <edge id=":1_12" function="internal">
        <lane id=":1_12_0" index="0" speed="7.00" length="10.09" shape="11427.90,6339.94 11430.65,6338.73 11432.43,6337.10 11433.24,6335.05 11433.08,6332.59"/>
    </edge>
    <edge id=":1_13" function="internal">
        <lane id=":1_13_0" index="0" speed="13.89" length="16.03" shape="11427.90,6339.94 11431.68,6338.94 11435.72,6338.19 11439.80,6337.76 11443.70,6337.70"/>
    </edge>
    <edge id=":1_14" function="internal">
        <lane id=":1_14_0" index="0" speed="7.59" length="4.78" shape="11427.90,6339.94 11432.25,6339.24 11432.60,6339.35"/>
    </edge>
    <edge id=":1_15" function="internal">
        <lane id=":1_15_0" index="0" speed="3.65" length="1.44" shape="11427.90,6339.94 11429.28,6340.35"/>
    </edge>
    <edge id=":1_22" function="internal">
        <lane id=":1_22_0" index="0" speed="7.59" length="10.63" shape="11432.60,6339.35 11435.39,6340.23 11437.31,6342.90 11438.00,6347.26"/>
    </edge>
    <edge id=":1_23" function="internal">
        <lane id=":1_23_0" index="0" speed="3.65" length="3.23" shape="11429.28,6340.35 11429.90,6341.00 11429.75,6341.88 11428.84,6343.00"/>
    </edge>
    <edge id=":10_0" function="internal">
        <lane id=":10_0_0" index="0" speed="10.54" length="11.05" shape="9805.34,6853.34 9803.74,6850.49 9801.95,6848.26 9799.98,6846.66 9797.82,6845.66"/>
    </edge>
    <edge id=":10_1" function="internal">
        <lane id=":10_1_0" index="0" speed="7.76" length="14.77" shape="9805.34,6853.34 9804.11,6849.39 9804.53,6846.17 9806.61,6843.67 9810.34,6841.89"/>
    </edge>
    <edge id=":10_2" function="internal">
        <lane id=":10_2_0" index="0" speed="3.65" length="1.44" shape="9805.34,6853.34 9805.55,6851.91"/>
    </edge>
    <edge id=":10_9" function="internal">
        <lane id=":10_9_0" index="0" speed="3.65" length="3.23" shape="9805.55,6851.91 9806.10,6851.21 9806.99,6851.22 9808.23,6851.96"/>
    </edge>
    <edge id=":10_3" function="internal">
        <lane id=":10_3_0" index="0" speed="6.21" length="9.05" shape="9811.29,6844.95 9809.01,6846.03 9807.73,6847.57 9807.47,6849.54 9808.23,6851.96"/>
    </edge>
    <edge id=":10_4" function="internal">
        <lane id=":10_4_0" index="0" speed="13.89" length="13.71" shape="9811.29,6844.95 9807.85,6845.89 9804.56,6846.40 9801.27,6846.37 9797.82,6845.66"/>
    </edge>
    <edge id=":10_5" function="internal">
        <lane id=":10_5_0" index="0" speed="3.65" length="1.44" shape="9811.29,6844.95 9809.91,6844.54"/>
    </edge>
    <edge id=":10_10" function="internal">
        <lane id=":10_10_0" index="0" speed="3.65" length="3.23" shape="9809.91,6844.54 9809.29,6843.89 9809.44,6843.01 9810.34,6841.89"/>
    </edge>
    <edge id=":10_6" function="internal">
        <lane id=":10_6_0" index="0" speed="13.89" length="11.86" shape="9798.75,6842.60 9801.91,6843.31 9804.55,6843.34 9807.19,6842.83 9810.34,6841.89"/>
    </edge>
    <edge id=":10_7" function="internal">
        <lane id=":10_7_0" index="0" speed="11.70" length="3.06" shape="9798.75,6842.60 9801.53,6843.85"/>
    </edge>
    <edge id=":10_8" function="internal">
        <lane id=":10_8_0" index="0" speed="3.65" length="1.44" shape="9798.75,6842.60 9799.66,6843.71"/>
    </edge>
    <edge id=":10_11" function="internal">
        <lane id=":10_11_0" index="0" speed="11.70" length="10.65" shape="9801.53,6843.85 9804.04,6845.83 9806.28,6848.53 9808.23,6851.96"/>
    </edge>
    <edge id=":10_12" function="internal">
        <lane id=":10_12_0" index="0" speed="3.65" length="3.23" shape="9799.66,6843.71 9799.81,6844.60 9799.20,6845.25 9797.82,6845.66"/>
    </edge>
    <edge id=":100_0" function="internal">
        <lane id=":100_0_0" index="0" speed="4.14" length="1.36" shape="13426.70,10531.45 13426.36,10531.52 13426.06,10531.66 13425.79,10531.87 13425.57,10532.13"/>
    </edge>
    <edge id=":100_1" function="internal">
        <lane id=":100_1_0" index="0" speed="6.52" length="4.09" shape="13422.93,10530.33 13423.60,10529.53 13424.39,10528.92 13425.30,10528.50 13426.32,10528.27"/>
    </edge>
    <edge id=":102_0" function="internal">
        <lane id=":102_0_0" index="0" speed="13.89" length="13.72" shape="10492.11,14860.06 10488.52,14860.04 10485.18,14860.21 10481.97,14860.88 10478.80,14862.35"/>
    </edge>
    <edge id=":102_1" function="internal">
        <lane id=":102_1_0" index="0" speed="7.38" length="17.30" shape="10492.11,14860.06 10486.89,14859.36 10484.20,14857.32 10484.04,14853.95 10486.40,14849.24"/>
    </edge>
    <edge id=":102_2" function="internal">
        <lane id=":102_2_0" index="0" speed="3.65" length="1.44" shape="10492.11,14860.06 10490.92,14859.25"/>
    </edge>
    <edge id=":102_9" function="internal">
        <lane id=":102_9_0" index="0" speed="3.65" length="3.23" shape="10490.92,14859.25 10490.52,14858.45 10490.93,14857.65 10492.13,14856.86"/>
    </edge>
    <edge id=":102_3" function="internal">
        <lane id=":102_3_0" index="0" speed="5.60" length="9.32" shape="10489.05,14851.03 10487.78,14853.57 10487.87,14855.38 10489.32,14856.48 10492.13,14856.86"/>
    </edge>
    <edge id=":102_4" function="internal">
        <lane id=":102_4_0" index="0" speed="13.89" length="15.39" shape="10489.05,14851.03 10486.87,14854.18 10484.47,14857.26 10481.80,14860.06 10478.80,14862.35"/>
    </edge>
    <edge id=":102_5" function="internal">
        <lane id=":102_5_0" index="0" speed="3.65" length="1.44" shape="10489.05,14851.03 10487.72,14851.57"/>
    </edge>
    <edge id=":102_10" function="internal">
        <lane id=":102_10_0" index="0" speed="3.65" length="3.23" shape="10487.72,14851.57 10486.83,14851.46 10486.39,14850.68 10486.40,14849.24"/>
    </edge>
    <edge id=":102_6" function="internal">
        <lane id=":102_6_0" index="0" speed="13.89" length="14.06" shape="10477.11,14859.63 10479.97,14857.48 10482.30,14855.00 10484.37,14852.24 10486.40,14849.24"/>
    </edge>
    <edge id=":102_7" function="internal">
        <lane id=":102_7_0" index="0" speed="13.89" length="15.46" shape="10477.11,14859.63 10480.55,14858.09 10484.34,14857.25 10488.27,14856.91 10492.13,14856.86"/>
    </edge>
    <edge id=":102_8" function="internal">
        <lane id=":102_8_0" index="0" speed="3.65" length="1.44" shape="10477.11,14859.63 10478.56,14859.68"/>
    </edge>
    <edge id=":102_11" function="internal">
        <lane id=":102_11_0" index="0" speed="3.65" length="3.23" shape="10478.56,14859.68 10479.32,14860.15 10479.40,14861.04 10478.80,14862.35"/>
    </edge>
    <edge id=":1031_0" function="internal">
        <lane id=":1031_0_0" index="0" speed="6.96" length="10.19" shape="14464.51,4195.23 14462.37,4193.99 14460.17,4193.84 14457.92,4194.78 14455.61,4196.81"/>
    </edge>
    <edge id=":1031_1" function="internal">
        <lane id=":1031_1_0" index="0" speed="13.89" length="14.98" shape="14464.51,4195.23 14461.54,4192.96 14458.39,4190.93 14455.10,4189.15 14451.70,4187.57"/>
    </edge>
    <edge id=":1031_2" function="internal">
        <lane id=":1031_2_0" index="0" speed="3.65" length="1.44" shape="14464.51,4195.23 14464.11,4193.85"/>
    </edge>
    <edge id=":1031_9" function="internal">
        <lane id=":1031_9_0" index="0" speed="3.65" length="3.23" shape="14464.11,4193.85 14464.32,4192.98 14465.14,4192.62 14466.57,4192.78"/>
    </edge>
    <edge id=":1031_3" function="internal">
        <lane id=":1031_3_0" index="0" speed="13.89" length="15.91" shape="14452.97,4184.63 14456.49,4186.28 14460.06,4188.24 14463.48,4190.43 14466.57,4192.78"/>
    </edge>
    <edge id=":1031_4" function="internal">
        <lane id=":1031_4_0" index="0" speed="7.54" length="4.78" shape="14452.97,4184.63 14456.82,4186.98 14456.96,4187.20"/>
    </edge>
    <edge id=":1031_5" function="internal">
        <lane id=":1031_5_0" index="0" speed="3.65" length="1.44" shape="14452.97,4184.63 14453.75,4185.84"/>
    </edge>
    <edge id=":1031_10" function="internal">
        <lane id=":1031_10_0" index="0" speed="7.54" length="10.86" shape="14456.96,4187.20 14458.55,4189.79 14458.15,4193.07 14455.61,4196.81"/>
    </edge>
    <edge id=":1031_11" function="internal">
        <lane id=":1031_11_0" index="0" speed="3.65" length="3.23" shape="14453.75,4185.84 14453.80,4186.73 14453.12,4187.31 14451.70,4187.57"/>
    </edge>
    <edge id=":1031_6" function="internal">
        <lane id=":1031_6_0" index="0" speed="5.91" length="9.10" shape="14453.24,4194.66 14454.72,4192.48 14454.95,4190.57 14453.95,4188.94 14451.70,4187.57"/>
    </edge>
    <edge id=":1031_7" function="internal">
        <lane id=":1031_7_0" index="0" speed="8.38" length="15.20" shape="14453.24,4194.66 14456.60,4191.76 14459.94,4190.48 14463.26,4190.82 14466.57,4192.78"/>
    </edge>
    <edge id=":1031_8" function="internal">
        <lane id=":1031_8_0" index="0" speed="3.65" length="1.44" shape="14453.24,4194.66 14454.64,4194.31"/>
    </edge>
    <edge id=":1031_12" function="internal">
        <lane id=":1031_12_0" index="0" speed="3.65" length="3.23" shape="14454.64,4194.31 14455.50,4194.55 14455.82,4195.38 14455.61,4196.81"/>
    </edge>
    <edge id=":1036_0" function="internal">
        <lane id=":1036_0_0" index="0" speed="6.26" length="12.12" shape="26047.08,12326.23 26045.94,12329.75 26044.21,12331.34 26041.88,12331.00 26038.96,12328.72"/>
    </edge>
    <edge id=":1036_1" function="internal">
        <lane id=":1036_1_0" index="0" speed="4.00" length="4.04" shape="26041.23,12326.47 26042.20,12327.23 26042.98,12327.34 26043.56,12326.81 26043.94,12325.64"/>
    </edge>
    <edge id=":1041_0" function="internal">
        <lane id=":1041_0_0" index="0" speed="13.89" length="15.80" shape="8421.88,31102.00 8420.87,31098.26 8420.03,31094.32 8419.42,31090.34 8419.10,31086.49"/>
    </edge>
    <edge id=":1041_1" function="internal">
        <lane id=":1041_1_0" index="0" speed="7.51" length="4.78" shape="8421.88,31102.00 8421.20,31097.46 8421.26,31097.29"/>
    </edge>
    <edge id=":1041_2" function="internal">
        <lane id=":1041_2_0" index="0" speed="3.65" length="1.44" shape="8421.88,31102.00 8422.31,31100.63"/>
    </edge>
    <edge id=":1041_9" function="internal">
        <lane id=":1041_9_0" index="0" speed="7.51" length="11.02" shape="8421.26,31097.29 8422.28,31094.33 8425.11,31092.62 8429.69,31092.32"/>
    </edge>
    <edge id=":1041_10" function="internal">
        <lane id=":1041_10_0" index="0" speed="3.65" length="3.23" shape="8422.31,31100.63 8422.96,31100.02 8423.84,31100.17 8424.95,31101.10"/>
    </edge>
    <edge id=":1041_3" function="internal">
        <lane id=":1041_3_0" index="0" speed="5.87" length="9.12" shape="8429.46,31095.51 8426.81,31095.68 8425.18,31096.67 8424.56,31098.48 8424.95,31101.10"/>
    </edge>
    <edge id=":1041_4" function="internal">
        <lane id=":1041_4_0" index="0" speed="8.64" length="15.27" shape="8429.46,31095.51 8425.05,31094.67 8421.85,31092.88 8419.87,31090.15 8419.10,31086.49"/>
    </edge>
    <edge id=":1041_5" function="internal">
        <lane id=":1041_5_0" index="0" speed="3.65" length="1.44" shape="8429.46,31095.51 8428.32,31094.62"/>
    </edge>
    <edge id=":1041_11" function="internal">
        <lane id=":1041_11_0" index="0" speed="3.65" length="3.23" shape="8428.32,31094.62 8427.98,31093.80 8428.44,31093.03 8429.69,31092.32"/>
    </edge>
    <edge id=":1041_6" function="internal">
        <lane id=":1041_6_0" index="0" speed="7.27" length="10.53" shape="8422.30,31086.36 8422.84,31088.77 8424.25,31090.56 8426.54,31091.75 8429.69,31092.32"/>
    </edge>
    <edge id=":1041_7" function="internal">
        <lane id=":1041_7_0" index="0" speed="13.89" length="15.01" shape="8422.30,31086.36 8422.60,31090.10 8423.17,31093.80 8423.96,31097.48 8424.95,31101.10"/>
    </edge>
    <edge id=":1041_8" function="internal">
        <lane id=":1041_8_0" index="0" speed="3.65" length="1.44" shape="8422.30,31086.36 8421.55,31087.59"/>
    </edge>
    <edge id=":1041_12" function="internal">
        <lane id=":1041_12_0" index="0" speed="3.65" length="3.23" shape="8421.55,31087.59 8420.76,31088.02 8419.95,31087.65 8419.10,31086.49"/>
    </edge>
    <edge id=":1047_0" function="internal">
        <lane id=":1047_0_0" index="0" speed="3.65" length="4.67" shape="10188.58,28333.93 10189.84,28334.62 10190.31,28335.38 10189.99,28336.21 10188.86,28337.11"/>
    </edge>
    <edge id=":1054_0" function="internal">
        <lane id=":1054_0_0" index="0" speed="3.65" length="4.67" shape="1.59,21610.59 0.69,21611.72 -0.14,21612.05 -0.90,21611.58 -1.59,21610.32"/>
    </edge>
    <edge id=":1061_0" function="internal">
        <lane id=":1061_0_0" index="0" speed="3.65" length="4.67" shape="3476.91,17364.21 3475.63,17363.55 3475.14,17362.80 3475.44,17361.96 3476.54,17361.03"/>
    </edge>
    <edge id=":1071_0" function="internal">
        <lane id=":1071_0_0" index="0" speed="3.65" length="4.67" shape="15223.41,4828.73 15223.81,4830.11 15223.60,4830.98 15222.78,4831.34 15221.35,4831.18"/>
    </edge>
    <edge id=":1074_0" function="internal">
        <lane id=":1074_0_0" index="0" speed="3.65" length="4.67" shape="25081.84,11363.75 25081.56,11362.33 25081.85,11361.49 25082.69,11361.21 25084.11,11361.50"/>
    </edge>
    <edge id=":1079_0" function="internal">
        <lane id=":1079_0_0" index="0" speed="3.65" length="4.67" shape="8956.70,32901.98 8956.28,32903.36 8955.62,32903.97 8954.74,32903.81 8953.63,32902.89"/>
    </edge>
    <edge id=":108_0" function="internal">
        <lane id=":108_0_0" index="0" speed="7.17" length="10.91" shape="13438.99,13908.61 13437.03,13906.56 13434.78,13905.63 13432.26,13905.85 13429.46,13907.19"/>
    </edge>
    <edge id=":108_1" function="internal">
        <lane id=":108_1_0" index="0" speed="13.89" length="15.85" shape="13438.99,13908.61 13436.62,13905.54 13433.90,13902.55 13430.97,13899.76 13427.97,13897.30"/>
    </edge>
    <edge id=":108_2" function="internal">
        <lane id=":108_2_0" index="0" speed="7.68" length="3.67" shape="13438.99,13908.61 13437.34,13905.33"/>
    </edge>
    <edge id=":108_3" function="internal">
        <lane id=":108_3_0" index="0" speed="3.65" length="1.44" shape="13438.99,13908.61 13438.96,13907.17"/>
    </edge>
    <edge id=":108_16" function="internal">
        <lane id=":108_16_0" index="0" speed="7.68" length="11.37" shape="13437.34,13905.33 13437.08,13904.81 13437.03,13901.54 13438.82,13898.81 13442.46,13896.61"/>
    </edge>
    <edge id=":108_17" function="internal">
        <lane id=":108_17_0" index="0" speed="3.65" length="3.23" shape="13438.96,13907.17 13439.39,13906.39 13440.27,13906.26 13441.62,13906.79"/>
    </edge>
    <edge id=":108_4" function="internal">
        <lane id=":108_4_0" index="0" speed="6.11" length="9.06" shape="13443.71,13899.56 13441.51,13900.88 13440.44,13902.53 13440.47,13904.50 13441.62,13906.79"/>
    </edge>
    <edge id=":108_5" function="internal">
        <lane id=":108_5_0" index="0" speed="13.89" length="16.18" shape="13443.71,13899.56 13440.13,13901.19 13436.43,13903.08 13432.80,13905.12 13429.46,13907.19"/>
    </edge>
    <edge id=":108_6" function="internal">
        <lane id=":108_6_0" index="0" speed="10.91" length="4.29" shape="13443.71,13899.56 13440.06,13900.33 13439.50,13900.31"/>
    </edge>
    <edge id=":108_7" function="internal">
        <lane id=":108_7_0" index="0" speed="3.65" length="1.44" shape="13443.71,13899.56 13442.29,13899.29"/>
    </edge>
    <edge id=":108_18" function="internal">
        <lane id=":108_18_0" index="0" speed="10.91" length="12.10" shape="13439.50,13900.31 13435.73,13900.15 13431.45,13899.10 13427.97,13897.30"/>
    </edge>
    <edge id=":108_19" function="internal">
        <lane id=":108_19_0" index="0" speed="3.65" length="3.23" shape="13442.29,13899.29 13441.61,13898.71 13441.66,13897.81 13442.46,13896.61"/>
    </edge>
    <edge id=":108_8" function="internal">
        <lane id=":108_8_0" index="0" speed="9.89" length="13.33" shape="13429.90,13894.74 13432.97,13896.59 13436.09,13897.51 13439.25,13897.52 13442.46,13896.61"/>
    </edge>
    <edge id=":108_9" function="internal">
        <lane id=":108_9_0" index="0" speed="13.89" length="16.86" shape="13429.90,13894.74 13433.01,13897.32 13436.18,13900.36 13439.14,13903.60 13441.62,13906.79"/>
    </edge>
    <edge id=":108_10" function="internal">
        <lane id=":108_10_0" index="0" speed="7.52" length="4.92" shape="13429.90,13894.74 13433.12,13897.97 13433.23,13898.31"/>
    </edge>
    <edge id=":108_11" function="internal">
        <lane id=":108_11_0" index="0" speed="3.65" length="1.44" shape="13429.90,13894.74 13430.37,13896.11"/>
    </edge>
    <edge id=":108_20" function="internal">
        <lane id=":108_20_0" index="0" speed="7.52" length="10.81" shape="13433.23,13898.31 13434.12,13901.12 13432.90,13904.20 13429.46,13907.19"/>
    </edge>
    <edge id=":108_21" function="internal">
        <lane id=":108_21_0" index="0" speed="3.65" length="3.23" shape="13430.37,13896.11 13430.21,13896.98 13429.41,13897.38 13427.97,13897.30"/>
    </edge>
    <edge id=":108_12" function="internal">
        <lane id=":108_12_0" index="0" speed="5.88" length="9.11" shape="13427.71,13904.50 13429.71,13902.77 13430.41,13900.99 13429.83,13899.17 13427.97,13897.30"/>
    </edge>
    <edge id=":108_13" function="internal">
        <lane id=":108_13_0" index="0" speed="13.89" length="16.74" shape="13427.71,13904.50 13431.14,13902.40 13434.93,13900.27 13438.80,13898.28 13442.46,13896.61"/>
    </edge>
    <edge id=":108_14" function="internal">
        <lane id=":108_14_0" index="0" speed="8.55" length="4.87" shape="13427.71,13904.50 13431.77,13902.58 13432.15,13902.55"/>
    </edge>
    <edge id=":108_15" function="internal">
        <lane id=":108_15_0" index="0" speed="3.65" length="1.44" shape="13427.71,13904.50 13429.16,13904.52"/>
    </edge>
    <edge id=":108_22" function="internal">
        <lane id=":108_22_0" index="0" speed="8.55" length="11.08" shape="13432.15,13902.55 13435.43,13902.32 13438.72,13903.72 13441.62,13906.79"/>
    </edge>
    <edge id=":108_23" function="internal">
        <lane id=":108_23_0" index="0" speed="3.65" length="3.23" shape="13429.16,13904.52 13429.93,13904.98 13430.03,13905.86 13429.46,13907.19"/>
    </edge>
    <edge id=":1087_0" function="internal">
        <lane id=":1087_0_0" index="0" speed="3.65" length="4.67" shape="9980.44,31207.59 9981.58,31208.47 9981.92,31209.30 9981.46,31210.07 9980.21,31210.78"/>
    </edge>
    <edge id=":114_0" function="internal">
        <lane id=":114_0_0" index="0" speed="9.45" length="13.11" shape="14270.58,10438.36 14268.04,10435.00 14265.48,10432.69 14262.91,10431.43 14260.33,10431.22"/>
    </edge>
    <edge id=":114_1" function="internal">
        <lane id=":114_1_0" index="0" speed="13.55" length="18.48" shape="14270.58,10438.36 14268.09,10433.82 14266.60,10429.38 14266.14,10425.05 14266.69,10420.82"/>
    </edge>
    <edge id=":114_2" function="internal">
        <lane id=":114_2_0" index="0" speed="7.38" length="6.38" shape="14270.58,10438.36 14268.21,10433.49 14268.27,10432.53"/>
    </edge>
    <edge id=":114_3" function="internal">
        <lane id=":114_3_0" index="0" speed="3.65" length="1.44" shape="14270.58,10438.36 14270.60,10436.91"/>
    </edge>
    <edge id=":114_16" function="internal">
        <lane id=":114_16_0" index="0" speed="7.38" length="11.23" shape="14268.27,10432.53 14268.42,10430.11 14271.22,10428.20 14276.62,10427.77"/>
    </edge>
    <edge id=":114_17" function="internal">
        <lane id=":114_17_0" index="0" speed="3.65" length="3.23" shape="14270.60,10436.91 14271.05,10436.14 14271.93,10436.04 14273.26,10436.60"/>
    </edge>
    <edge id=":114_4" function="internal">
        <lane id=":114_4_0" index="0" speed="5.57" length="9.38" shape="14276.47,10430.96 14273.60,10431.19 14272.11,10432.21 14271.99,10434.01 14273.26,10436.60"/>
    </edge>
    <edge id=":114_5" function="internal">
        <lane id=":114_5_0" index="0" speed="13.89" length="16.16" shape="14276.47,10430.96 14272.54,10430.82 14268.39,10430.78 14264.25,10430.90 14260.33,10431.22"/>
    </edge>
    <edge id=":114_6" function="internal">
        <lane id=":114_6_0" index="0" speed="8.11" length="5.26" shape="14276.47,10430.96 14271.28,10430.12"/>
    </edge>
    <edge id=":114_7" function="internal">
        <lane id=":114_7_0" index="0" speed="3.65" length="1.44" shape="14276.47,10430.96 14275.31,10430.11"/>
    </edge>
    <edge id=":114_18" function="internal">
        <lane id=":114_18_0" index="0" speed="8.11" length="11.59" shape="14271.28,10430.12 14267.92,10428.15 14266.39,10425.05 14266.69,10420.82"/>
    </edge>
    <edge id=":114_19" function="internal">
        <lane id=":114_19_0" index="0" speed="3.65" length="3.23" shape="14275.31,10430.11 14274.95,10429.29 14275.39,10428.51 14276.62,10427.77"/>
    </edge>
    <edge id=":114_8" function="internal">
        <lane id=":114_8_0" index="0" speed="6.64" length="10.92" shape="14269.79,10421.61 14269.67,10424.16 14270.77,10426.04 14273.08,10427.24 14276.62,10427.77"/>
    </edge>
    <edge id=":114_9" function="internal">
        <lane id=":114_9_0" index="0" speed="12.57" length="15.83" shape="14269.79,10421.61 14269.34,10425.17 14269.77,10428.85 14271.08,10432.66 14273.26,10436.60"/>
    </edge>
    <edge id=":114_10" function="internal">
        <lane id=":114_10_0" index="0" speed="9.41" length="3.18" shape="14269.79,10421.61 14268.70,10424.59"/>
    </edge>
    <edge id=":114_11" function="internal">
        <lane id=":114_11_0" index="0" speed="3.65" length="1.32" shape="14269.79,10421.61 14268.81,10422.49"/>
    </edge>
    <edge id=":114_20" function="internal">
        <lane id=":114_20_0" index="0" speed="9.41" length="11.23" shape="14268.70,10424.59 14268.37,10425.49 14266.32,10428.38 14263.64,10430.29 14260.33,10431.22"/>
    </edge>
    <edge id=":114_21" function="internal">
        <lane id=":114_21_0" index="0" speed="3.65" length="3.35" shape="14268.81,10422.49 14268.72,10422.57 14267.85,10422.76 14267.17,10422.18 14266.69,10420.82"/>
    </edge>
    <edge id=":114_12" function="internal">
        <lane id=":114_12_0" index="0" speed="8.12" length="10.54" shape="14259.95,10428.04 14262.27,10427.36 14264.17,10425.93 14265.64,10423.75 14266.69,10420.82"/>
    </edge>
    <edge id=":114_13" function="internal">
        <lane id=":114_13_0" index="0" speed="13.89" length="16.69" shape="14259.95,10428.04 14263.95,10427.72 14268.27,10427.60 14272.61,10427.63 14276.62,10427.77"/>
    </edge>
    <edge id=":114_14" function="internal">
        <lane id=":114_14_0" index="0" speed="10.60" length="3.83" shape="14259.95,10428.04 14263.46,10428.26 14263.75,10428.38"/>
    </edge>
    <edge id=":114_15" function="internal">
        <lane id=":114_15_0" index="0" speed="3.65" length="1.44" shape="14259.95,10428.04 14261.24,10428.69"/>
    </edge>
    <edge id=":114_22" function="internal">
        <lane id=":114_22_0" index="0" speed="10.60" length="12.82" shape="14263.75,10428.38 14266.85,10429.75 14270.11,10432.54 14273.26,10436.60"/>
    </edge>
    <edge id=":114_23" function="internal">
        <lane id=":114_23_0" index="0" speed="3.65" length="3.23" shape="14261.24,10428.69 14261.73,10429.44 14261.43,10430.28 14260.33,10431.22"/>
    </edge>
    <edge id=":12_0" function="internal">
        <lane id=":12_0_0" index="0" speed="13.89" length="15.69" shape="12086.56,4380.13 12082.75,4379.47 12078.86,4378.61 12075.02,4377.53 12071.39,4376.25"/>
    </edge>
    <edge id=":12_1" function="internal">
        <lane id=":12_1_0" index="0" speed="7.53" length="4.71" shape="12086.56,4380.13 12082.21,4378.84 12082.08,4378.72"/>
    </edge>
    <edge id=":12_2" function="internal">
        <lane id=":12_2_0" index="0" speed="3.65" length="1.44" shape="12086.56,4380.13 12085.49,4379.16"/>
    </edge>
    <edge id=":12_9" function="internal">
        <lane id=":12_9_0" index="0" speed="7.53" length="10.96" shape="12082.08,4378.72 12079.82,4376.57 12079.39,4373.29 12080.91,4369.02"/>
    </edge>
    <edge id=":12_10" function="internal">
        <lane id=":12_10_0" index="0" speed="3.65" length="3.23" shape="12085.49,4379.16 12085.21,4378.31 12085.72,4377.58 12087.03,4376.96"/>
    </edge>
    <edge id=":12_3" function="internal">
        <lane id=":12_3_0" index="0" speed="5.90" length="9.10" shape="12083.75,4370.51 12082.86,4372.99 12083.11,4374.89 12084.50,4376.22 12087.03,4376.96"/>
    </edge>
    <edge id=":12_4" function="internal">
        <lane id=":12_4_0" index="0" speed="8.59" length="15.17" shape="12083.75,4370.51 12081.24,4374.17 12078.34,4376.35 12075.06,4377.04 12071.39,4376.25"/>
    </edge>
    <edge id=":12_5" function="internal">
        <lane id=":12_5_0" index="0" speed="3.65" length="1.44" shape="12083.75,4370.51 12082.48,4371.20"/>
    </edge>
    <edge id=":12_11" function="internal">
        <lane id=":12_11_0" index="0" speed="3.65" length="3.23" shape="12082.48,4371.20 12081.59,4371.18 12081.06,4370.46 12080.91,4369.02"/>
    </edge>
    <edge id=":12_6" function="internal">