<?xml version="1.0" encoding="UTF-8"?>

<!-- generated on 2025-03-31 04:16:57 by Eclipse SUMO netgenerate Version 1.22.0
<netgenerateConfiguration xmlns:xsi="http://www.w3.org/2001/XMLSchema-instance" xsi:noNamespaceSchemaLocation="http://sumo.dlr.de/xsd/netgenerateConfiguration.xsd">

    <random_network>
        <rand value="true"/>
        <rand.iterations value="119"/>
        <rand.max-distance value="2865.351211752187"/>
        <rand.min-distance value="566.6847006078392"/>
        <rand.min-angle value="40.646549452174526"/>
        <rand.neighbor-dist1 value="1.0"/>
        <rand.neighbor-dist2 value="10.0"/>
        <rand.neighbor-dist3 value="5.0"/>
        <rand.neighbor-dist4 value="5.0"/>
        <rand.neighbor-dist5 value="0.0"/>
        <rand.neighbor-dist6 value="0.0"/>
    </random_network>

    <output>
        <output-file value="configs/rand-configs/rand1.net.xml"/>
    </output>

    <tls_building>
        <tls.guess value="true"/>
        <tls.guess.threshold value="0"/>
    </tls_building>

</netgenerateConfiguration>
-->

<net version="1.20" junctionCornerDetail="5" limitTurnSpeed="5.50" xmlns:xsi="http://www.w3.org/2001/XMLSchema-instance" xsi:noNamespaceSchemaLocation="http://sumo.dlr.de/xsd/net_file.xsd">

    <location netOffset="13931.55,17908.95" convBoundary="0.00,0.00,20211.59,26900.00" origBoundary="-13931.55,-17908.95,6280.05,8991.05" projParameter="!"/>

    <edge id=":1_0" function="internal">
        <lane id=":1_0_0" index="0" speed="11.26" length="16.20" shape="13930.06,17916.35 13929.43,17913.13 13927.66,17909.99 13924.72,17906.92 13920.64,17903.93"/>
    </edge>
    <edge id=":1_1" function="internal">
        <lane id=":1_1_0" index="0" speed="13.89" length="18.84" shape="13930.06,17916.35 13929.75,17912.02 13929.04,17907.00 13928.14,17902.01 13927.21,17897.75"/>
    </edge>
    <edge id=":1_2" function="internal">
        <lane id=":1_2_0" index="0" speed="7.91" length="3.57" shape="13930.06,17916.35 13930.51,17912.80"/>
    </edge>
    <edge id=":1_3" function="internal">
        <lane id=":1_3_0" index="0" speed="3.65" length="1.44" shape="13930.06,17916.35 13930.84,17915.13"/>
    </edge>
    <edge id=":1_16" function="internal">
        <lane id=":1_16_0" index="0" speed="7.91" length="10.83" shape="13930.51,17912.80 13930.57,17912.40 13932.22,17909.64 13935.02,17908.04 13938.98,17907.63"/>
    </edge>
    <edge id=":1_17" function="internal">
        <lane id=":1_17_0" index="0" speed="3.65" length="3.23" shape="13930.84,17915.13 13931.64,17914.72 13932.44,17915.11 13933.26,17916.30"/>
    </edge>
    <edge id=":1_4" function="internal">
        <lane id=":1_4_0" index="0" speed="6.39" length="9.04" shape="13938.86,17910.83 13936.37,17911.09 13934.62,17912.09 13933.58,17913.82 13933.26,17916.30"/>
    </edge>
    <edge id=":1_5" function="internal">
        <lane id=":1_5_0" index="0" speed="13.89" length="19.61" shape="13938.86,17910.83 13934.50,17910.04 13929.46,17908.31 13924.57,17906.11 13920.64,17903.93"/>
    </edge>
    <edge id=":1_6" function="internal">
        <lane id=":1_6_0" index="0" speed="10.07" length="4.78" shape="13938.86,17910.83 13935.42,17909.51 13934.60,17908.77"/>
    </edge>
    <edge id=":1_7" function="internal">
        <lane id=":1_7_0" index="0" speed="3.65" length="1.44" shape="13938.86,17910.83 13937.69,17909.98"/>
    </edge>
    <edge id=":1_18" function="internal">
        <lane id=":1_18_0" index="0" speed="10.07" length="13.48" shape="13934.60,17908.77 13931.94,17906.36 13929.00,17902.17 13927.21,17897.75"/>
    </edge>
    <edge id=":1_19" function="internal">
        <lane id=":1_19_0" index="0" speed="3.65" length="3.23" shape="13937.69,17909.98 13937.32,17909.17 13937.75,17908.38 13938.98,17907.63"/>
    </edge>
    <edge id=":1_8" function="internal">
        <lane id=":1_8_0" index="0" speed="9.08" length="14.69" shape="13930.32,17897.00 13931.80,17901.56 13933.73,17904.85 13936.13,17906.88 13938.98,17907.63"/>
    </edge>
    <edge id=":1_9" function="internal">
        <lane id=":1_9_0" index="0" speed="13.89" length="19.54" shape="13930.32,17897.00 13931.26,17901.37 13932.20,17906.60 13932.93,17911.86 13933.26,17916.30"/>
    </edge>
    <edge id=":1_10" function="internal">
        <lane id=":1_10_0" index="0" speed="7.43" length="6.42" shape="13930.32,17897.00 13931.11,17903.22 13931.04,17903.36"/>
    </edge>
    <edge id=":1_11" function="internal">
        <lane id=":1_11_0" index="0" speed="3.65" length="1.44" shape="13930.32,17897.00 13929.83,17898.36"/>
    </edge>
    <edge id=":1_20" function="internal">
        <lane id=":1_20_0" index="0" speed="7.43" length="13.09" shape="13931.04,17903.36 13929.75,17906.44 13926.26,17906.68 13920.64,17903.93"/>
    </edge>
    <edge id=":1_21" function="internal">
        <lane id=":1_21_0" index="0" speed="3.65" length="3.23" shape="13929.83,17898.36 13929.14,17898.93 13928.27,17898.73 13927.21,17897.75"/>
    </edge>
    <edge id=":1_12" function="internal">
        <lane id=":1_12_0" index="0" speed="5.47" length="9.79" shape="13922.36,17901.22 13925.18,17902.60 13926.93,17902.48 13927.60,17900.87 13927.21,17897.75"/>
    </edge>
    <edge id=":1_13" function="internal">
        <lane id=":1_13_0" index="0" speed="13.89" length="17.96" shape="13922.36,17901.22 13926.03,17903.33 13930.38,17905.36 13934.87,17906.92 13938.98,17907.63"/>
    </edge>
    <edge id=":1_14" function="internal">
        <lane id=":1_14_0" index="0" speed="12.18" length="5.03" shape="13922.36,17901.22 13926.26,17904.40"/>
    </edge>
    <edge id=":1_15" function="internal">
        <lane id=":1_15_0" index="0" speed="3.65" length="1.44" shape="13922.36,17901.22 13922.94,17902.54"/>
    </edge>
    <edge id=":1_22" function="internal">
        <lane id=":1_22_0" index="0" speed="12.18" length="14.02" shape="13926.26,17904.40 13929.75,17908.46 13932.27,17912.67 13933.26,17916.30"/>
    </edge>
    <edge id=":1_23" function="internal">
        <lane id=":1_23_0" index="0" speed="3.65" length="3.23" shape="13922.94,17902.54 13922.85,17903.43 13922.08,17903.89 13920.64,17903.93"/>
    </edge>
    <edge id=":10_0" function="internal">
        <lane id=":10_0_0" index="0" speed="13.89" length="19.47" shape="11768.33,15849.90 11762.60,15851.31 11757.52,15851.79 11753.10,15851.32 11749.33,15849.92"/>
    </edge>
    <edge id=":10_1" function="internal">
        <lane id=":10_1_0" index="0" speed="7.44" length="7.10" shape="11768.33,15849.90 11762.13,15851.10 11761.39,15850.85"/>
    </edge>
    <edge id=":10_2" function="internal">
        <lane id=":10_2_0" index="0" speed="3.65" length="1.44" shape="11768.33,15849.90 11766.95,15849.49"/>
    </edge>
    <edge id=":10_9" function="internal">
        <lane id=":10_9_0" index="0" speed="7.44" length="12.55" shape="11761.39,15850.85 11758.81,15849.97 11758.39,15846.49 11760.85,15840.67"/>
    </edge>
    <edge id=":10_10" function="internal">
        <lane id=":10_10_0" index="0" speed="3.65" length="3.23" shape="11766.95,15849.49 11766.33,15848.85 11766.47,15847.96 11767.38,15846.84"/>
    </edge>
    <edge id=":10_3" function="internal">
        <lane id=":10_3_0" index="0" speed="5.47" length="9.82" shape="11763.65,15842.23 11762.41,15845.14 11762.62,15846.88 11764.28,15847.44 11767.38,15846.84"/>
    </edge>
    <edge id=":10_4" function="internal">
        <lane id=":10_4_0" index="0" speed="9.04" length="18.24" shape="11763.65,15842.23 11760.26,15847.16 11756.75,15850.08 11753.10,15851.00 11749.33,15849.92"/>
    </edge>
    <edge id=":10_5" function="internal">
        <lane id=":10_5_0" index="0" speed="3.65" length="1.44" shape="11763.65,15842.23 11762.36,15842.89"/>
    </edge>
    <edge id=":10_11" function="internal">
        <lane id=":10_11_0" index="0" speed="3.65" length="3.23" shape="11762.36,15842.89 11761.47,15842.84 11760.96,15842.10 11760.85,15840.67"/>
    </edge>
    <edge id=":10_6" function="internal">
        <lane id=":10_6_0" index="0" speed="7.77" length="13.19" shape="11750.85,15847.11 11753.32,15847.71 11755.81,15846.83 11758.32,15844.48 11760.85,15840.67"/>
    </edge>
    <edge id=":10_7" function="internal">
        <lane id=":10_7_0" index="0" speed="13.34" length="16.93" shape="11750.85,15847.11 11754.02,15848.25 11757.84,15848.59 11762.29,15848.12 11767.38,15846.84"/>
    </edge>
    <edge id=":10_8" function="internal">
        <lane id=":10_8_0" index="0" speed="3.65" length="1.30" shape="11750.85,15847.11 11751.46,15848.26"/>
    </edge>
    <edge id=":10_12" function="internal">
        <lane id=":10_12_0" index="0" speed="3.65" length="3.37" shape="11751.46,15848.26 11751.53,15848.38 11751.50,15849.28 11750.76,15849.79 11749.33,15849.92"/>
    </edge>
    <edge id=":1006_0" function="internal">
        <lane id=":1006_0_0" index="0" speed="6.88" length="3.39" shape="613.99,24135.74 613.36,24134.97 613.01,24134.36 612.86,24133.68 612.81,24132.69"/>
    </edge>
    <edge id=":1006_1" function="internal">
        <lane id=":1006_1_0" index="0" speed="4.33" length="1.13" shape="616.01,24132.62 616.03,24132.95 616.08,24133.17 616.19,24133.38 616.41,24133.63"/>
    </edge>
    <edge id=":1009_0" function="internal">
        <lane id=":1009_0_0" index="0" speed="5.69" length="9.22" shape="7892.12,6903.91 7889.63,6902.72 7887.78,6902.82 7886.58,6904.23 7886.01,6906.93"/>
    </edge>
    <edge id=":1009_1" function="internal">
        <lane id=":1009_1_0" index="0" speed="9.78" length="15.79" shape="7892.12,6903.91 7888.36,6900.93 7885.91,6897.78 7884.76,6894.46 7884.92,6890.97"/>
    </edge>
    <edge id=":1009_2" function="internal">
        <lane id=":1009_2_0" index="0" speed="3.65" length="1.44" shape="7892.12,6903.91 7891.55,6902.58"/>
    </edge>
    <edge id=":1009_9" function="internal">
        <lane id=":1009_9_0" index="0" speed="3.65" length="3.23" shape="7891.55,6902.58 7891.66,6901.69 7892.43,6901.24 7893.87,6901.23"/>
    </edge>
    <edge id=":1009_3" function="internal">
        <lane id=":1009_3_0" index="0" speed="8.55" length="11.90" shape="7888.04,6891.68 7887.98,6894.15 7888.93,6896.56 7890.90,6898.92 7893.87,6901.23"/>
    </edge>
    <edge id=":1009_4" function="internal">
        <lane id=":1009_4_0" index="0" speed="13.89" length="15.39" shape="7888.04,6891.68 7887.31,6895.42 7886.75,6899.27 7886.33,6903.13 7886.01,6906.93"/>
    </edge>
    <edge id=":1009_5" function="internal">
        <lane id=":1009_5_0" index="0" speed="3.65" length="1.44" shape="7888.04,6891.68 7886.99,6892.68"/>
    </edge>
    <edge id=":1009_10" function="internal">
        <lane id=":1009_10_0" index="0" speed="3.65" length="3.23" shape="7886.99,6892.68 7886.13,6892.89 7885.43,6892.32 7884.92,6890.97"/>
    </edge>
    <edge id=":1009_6" function="internal">
        <lane id=":1009_6_0" index="0" speed="13.89" length="15.88" shape="7882.82,6906.70 7883.14,6902.82 7883.59,6898.79 7884.17,6894.79 7884.92,6890.97"/>
    </edge>
    <edge id=":1009_7" function="internal">
        <lane id=":1009_7_0" index="0" speed="7.41" length="5.00" shape="7882.82,6906.70 7883.84,6901.81"/>
    </edge>
    <edge id=":1009_8" function="internal">
        <lane id=":1009_8_0" index="0" speed="3.65" length="1.44" shape="7882.82,6906.70 7883.70,6905.56"/>
    </edge>
    <edge id=":1009_11" function="internal">
        <lane id=":1009_11_0" index="0" speed="7.41" length="11.69" shape="7883.84,6901.81 7886.02,6899.27 7889.37,6899.08 7893.87,6901.23"/>
    </edge>
    <edge id=":1009_12" function="internal">
        <lane id=":1009_12_0" index="0" speed="3.65" length="3.23" shape="7883.70,6905.56 7884.53,6905.22 7885.30,6905.68 7886.01,6906.93"/>
    </edge>
    <edge id=":1013_0" function="internal">
        <lane id=":1013_0_0" index="0" speed="7.48" length="10.82" shape="5723.71,3545.89 5721.25,3545.77 5719.08,3546.67 5717.21,3548.59 5715.64,3551.53"/>
    </edge>
    <edge id=":1013_1" function="internal">
        <lane id=":1013_1_0" index="0" speed="13.89" length="15.10" shape="5723.71,3545.89 5720.02,3545.16 5716.26,3544.71 5712.48,3544.48 5708.72,3544.44"/>
    </edge>
    <edge id=":1013_2" function="internal">
        <lane id=":1013_2_0" index="0" speed="3.65" length="1.44" shape="5723.71,3545.89 5722.73,3544.83"/>
    </edge>
    <edge id=":1013_9" function="internal">
        <lane id=":1013_9_0" index="0" speed="3.65" length="3.23" shape="5722.73,3544.83 5722.53,3543.96 5723.10,3543.27 5724.45,3542.78"/>
    </edge>
    <edge id=":1013_3" function="internal">
        <lane id=":1013_3_0" index="0" speed="13.89" length="15.88" shape="5708.69,3541.24 5712.58,3541.30 5716.62,3541.55 5720.64,3542.04 5724.45,3542.78"/>
    </edge>
    <edge id=":1013_4" function="internal">
        <lane id=":1013_4_0" index="0" speed="7.48" length="4.85" shape="5708.69,3541.24 5713.34,3541.85 5713.47,3541.94"/>
    </edge>
    <edge id=":1013_5" function="internal">
        <lane id=":1013_5_0" index="0" speed="3.65" length="1.44" shape="5708.69,3541.24 5709.89,3542.03"/>
    </edge>
    <edge id=":1013_10" function="internal">
        <lane id=":1013_10_0" index="0" speed="7.48" length="11.17" shape="5713.47,3541.94 5716.05,3543.76 5716.82,3546.99 5715.64,3551.53"/>
    </edge>
    <edge id=":1013_11" function="internal">
        <lane id=":1013_11_0" index="0" speed="3.65" length="3.23" shape="5709.89,3542.03 5710.30,3542.83 5709.91,3543.63 5708.72,3544.44"/>
    </edge>
    <edge id=":1013_6" function="internal">
        <lane id=":1013_6_0" index="0" speed="5.81" length="9.14" shape="5712.69,3550.31 5713.35,3547.72 5712.92,3545.88 5711.37,3544.79 5708.72,3544.44"/>
    </edge>
    <edge id=":1013_7" function="internal">
        <lane id=":1013_7_0" index="0" speed="8.82" length="15.41" shape="5712.69,3550.31 5714.88,3546.31 5717.57,3543.71 5720.76,3542.54 5724.45,3542.78"/>
    </edge>
    <edge id=":1013_8" function="internal">
        <lane id=":1013_8_0" index="0" speed="3.65" length="1.44" shape="5712.69,3550.31 5713.88,3549.51"/>
    </edge>
    <edge id=":1013_12" function="internal">
        <lane id=":1013_12_0" index="0" speed="3.65" length="3.23" shape="5713.88,3549.51 5714.77,3549.44 5715.36,3550.12 5715.64,3551.53"/>
    </edge>
    <edge id=":1017_0" function="internal">
        <lane id=":1017_0_0" index="0" speed="13.89" length="16.49" shape="9649.96,2935.28 9648.61,2939.03 9646.75,2942.87 9644.51,2946.50 9642.06,2949.63"/>
    </edge>
    <edge id=":1017_1" function="internal">
        <lane id=":1017_1_0" index="0" speed="7.60" length="4.97" shape="9649.96,2935.28 9648.15,2939.29 9647.70,2939.66"/>
    </edge>
    <edge id=":1017_2" function="internal">
        <lane id=":1017_2_0" index="0" speed="3.65" length="1.44" shape="9649.96,2935.28 9648.85,2936.22"/>
    </edge>
    <edge id=":1017_9" function="internal">
        <lane id=":1017_9_0" index="0" speed="7.60" length="10.38" shape="9647.70,2939.66 9645.61,2941.37 9642.33,2941.53 9638.31,2939.77"/>
    </edge>
    <edge id=":1017_10" function="internal">
        <lane id=":1017_10_0" index="0" speed="3.65" length="3.23" shape="9648.85,2936.22 9647.97,2936.38 9647.32,2935.77 9646.88,2934.40"/>
    </edge>
    <edge id=":1017_3" function="internal">
        <lane id=":1017_3_0" index="0" speed="6.00" length="9.08" shape="9639.99,2937.05 9642.37,2938.09 9644.31,2938.00 9645.82,2936.77 9646.88,2934.40"/>
    </edge>
    <edge id=":1017_4" function="internal">
        <lane id=":1017_4_0" index="0" speed="7.78" length="15.22" shape="9639.99,2937.05 9643.36,2939.84 9644.82,2942.87 9644.39,2946.13 9642.06,2949.63"/>
    </edge>
    <edge id=":1017_5" function="internal">
        <lane id=":1017_5_0" index="0" speed="3.65" length="1.44" shape="9639.99,2937.05 9640.59,2938.36"/>
    </edge>
    <edge id=":1017_11" function="internal">
        <lane id=":1017_11_0" index="0" speed="3.65" length="3.23" shape="9640.59,2938.36 9640.51,2939.25 9639.75,2939.72 9638.31,2939.77"/>
    </edge>
    <edge id=":1017_6" function="internal">
        <lane id=":1017_6_0" index="0" speed="6.24" length="9.35" shape="9639.69,2947.48 9641.09,2945.35 9641.33,2943.36 9640.40,2941.50 9638.31,2939.77"/>
    </edge>
    <edge id=":1017_7" function="internal">
        <lane id=":1017_7_0" index="0" speed="13.89" length="15.05" shape="9639.69,2947.48 9642.03,2944.55 9644.02,2941.35 9645.64,2937.95 9646.88,2934.40"/>
    </edge>
    <edge id=":1017_8" function="internal">
        <lane id=":1017_8_0" index="0" speed="3.65" length="1.44" shape="9639.69,2947.48 9641.08,2947.12"/>
    </edge>
    <edge id=":1017_12" function="internal">
        <lane id=":1017_12_0" index="0" speed="3.65" length="3.23" shape="9641.08,2947.12 9641.95,2947.37 9642.27,2948.20 9642.06,2949.63"/>
    </edge>
    <edge id=":1036_0" function="internal">
        <lane id=":1036_0_0" index="0" speed="5.71" length="9.20" shape="14090.95,10404.11 14089.99,10401.54 14088.58,10400.33 14086.72,10400.47 14084.42,10401.95"/>
    </edge>
    <edge id=":1036_1" function="internal">
        <lane id=":1036_1_0" index="0" speed="13.89" length="21.03" shape="14090.95,10404.11 14090.31,10399.47 14090.06,10393.65 14090.14,10387.82 14090.55,10383.14"/>
    </edge>
    <edge id=":1036_2" function="internal">
        <lane id=":1036_2_0" index="0" speed="11.18" length="5.94" shape="14090.95,10404.11 14090.58,10399.24 14090.85,10398.21"/>
    </edge>
    <edge id=":1036_3" function="internal">
        <lane id=":1036_3_0" index="0" speed="3.65" length="1.44" shape="14090.95,10404.11 14091.46,10402.76"/>
    </edge>
    <edge id=":1036_16" function="internal">
        <lane id=":1036_16_0" index="0" speed="11.18" length="14.33" shape="14090.85,10398.21 14091.78,10394.74 14094.55,10390.60 14098.90,10386.83"/>
    </edge>
    <edge id=":1036_17" function="internal">
        <lane id=":1036_17_0" index="0" speed="3.65" length="3.23" shape="14091.46,10402.76 14092.15,10402.19 14093.02,10402.40 14094.07,10403.39"/>
    </edge>
    <edge id=":1036_4" function="internal">
        <lane id=":1036_4_0" index="0" speed="10.12" length="16.46" shape="14100.73,10389.45 14097.13,10392.55 14094.82,10395.91 14093.80,10399.52 14094.07,10403.39"/>
    </edge>
    <edge id=":1036_5" function="internal">
        <lane id=":1036_5_0" index="0" speed="13.89" length="20.56" shape="14100.73,10389.45 14096.99,10392.15 14092.47,10395.56 14088.00,10399.03 14084.42,10401.95"/>
    </edge>
    <edge id=":1036_6" function="internal">
        <lane id=":1036_6_0" index="0" speed="7.41" length="5.36" shape="14100.73,10389.45 14096.02,10392.00"/>
    </edge>
    <edge id=":1036_7" function="internal">
        <lane id=":1036_7_0" index="0" speed="3.65" length="1.44" shape="14100.73,10389.45 14099.29,10389.48"/>
    </edge>
    <edge id=":1036_18" function="internal">
        <lane id=":1036_18_0" index="0" speed="7.41" length="13.62" shape="14096.02,10392.00 14095.44,10392.32 14091.97,10392.22 14090.34,10389.16 14090.55,10383.14"/>
    </edge>
    <edge id=":1036_19" function="internal">
        <lane id=":1036_19_0" index="0" speed="3.65" length="3.23" shape="14099.29,10389.48 14098.51,10389.06 14098.38,10388.17 14098.90,10386.83"/>
    </edge>
    <edge id=":1036_8" function="internal">
        <lane id=":1036_8_0" index="0" speed="5.49" length="9.66" shape="14093.72,10383.62 14093.61,10386.68 14094.44,10388.24 14096.20,10388.29 14098.90,10386.83"/>
    </edge>
    <edge id=":1036_9" function="internal">
        <lane id=":1036_9_0" index="0" speed="13.89" length="19.85" shape="14093.72,10383.62 14093.30,10388.11 14093.20,10393.53 14093.44,10398.94 14094.07,10403.39"/>
    </edge>
    <edge id=":1036_10" function="internal">
        <lane id=":1036_10_0" index="0" speed="13.89" length="3.95" shape="14093.72,10383.62 14092.67,10387.42"/>
    </edge>
    <edge id=":1036_11" function="internal">
        <lane id=":1036_11_0" index="0" speed="3.65" length="1.44" shape="14093.72,10383.62 14092.75,10384.68"/>
    </edge>
    <edge id=":1036_20" function="internal">
        <lane id=":1036_20_0" index="0" speed="13.89" length="16.84" shape="14092.67,10387.42 14092.49,10388.11 14090.22,10393.42 14087.37,10398.41 14084.42,10401.95"/>
    </edge>
    <edge id=":1036_21" function="internal">
        <lane id=":1036_21_0" index="0" speed="3.65" length="3.23" shape="14092.75,10384.68 14091.90,10384.96 14091.17,10384.45 14090.55,10383.14"/>
    </edge>
    <edge id=":1036_12" function="internal">
        <lane id=":1036_12_0" index="0" speed="13.89" length="18.57" shape="14082.34,10399.52 14085.12,10396.28 14087.59,10391.96 14089.49,10387.33 14090.55,10383.14"/>
    </edge>
    <edge id=":1036_13" function="internal">
        <lane id=":1036_13_0" index="0" speed="13.89" length="20.87" shape="14082.34,10399.52 14085.95,10396.57 14090.51,10393.03 14095.12,10389.56 14098.90,10386.83"/>
    </edge>
    <edge id=":1036_14" function="internal">
        <lane id=":1036_14_0" index="0" speed="7.42" length="4.92" shape="14082.34,10399.52 14086.47,10396.85"/>
    </edge>
    <edge id=":1036_15" function="internal">
        <lane id=":1036_15_0" index="0" speed="3.65" length="1.44" shape="14082.34,10399.52 14083.77,10399.34"/>
    </edge>
    <edge id=":1036_22" function="internal">
        <lane id=":1036_22_0" index="0" speed="7.42" length="11.60" shape="14086.47,10396.85 14089.81,10396.61 14092.34,10398.79 14094.07,10403.39"/>
    </edge>
    <edge id=":1036_23" function="internal">
        <lane id=":1036_23_0" index="0" speed="3.65" length="3.23" shape="14083.77,10399.34 14084.60,10399.69 14084.81,10400.56 14084.42,10401.95"/>
    </edge>
    <edge id=":1038_0" function="internal">
        <lane id=":1038_0_0" index="0" speed="6.09" length="9.37" shape="17686.82,11294.64 17689.33,11295.58 17690.70,11297.05 17690.94,11299.04 17690.04,11301.57"/>
    </edge>
    <edge id=":1038_1" function="internal">
        <lane id=":1038_1_0" index="0" speed="3.91" length="3.12" shape="17687.21,11300.07 17687.51,11299.23 17687.43,11298.57 17686.97,11298.08 17686.14,11297.77"/>
    </edge>
    <edge id=":1046_0" function="internal">
        <lane id=":1046_0_0" index="0" speed="6.21" length="11.52" shape="5.80,23226.57 2.50,23227.68 0.25,23227.26 -0.94,23225.31 -1.09,23221.84"/>
    </edge>
    <edge id=":1046_1" function="internal">
        <lane id=":1046_1_0" index="0" speed="3.98" length="3.84" shape="2.09,23222.12 2.14,23223.28 2.54,23223.93 3.29,23224.07 4.39,23223.70"/>
    </edge>
    <edge id=":1051_0" function="internal">
        <lane id=":1051_0_0" index="0" speed="3.65" length="4.67" shape="7698.71,9489.38 7697.83,9490.52 7697.00,9490.86 7696.23,9490.40 7695.52,9489.15"/>
    </edge>
    <edge id=":1055_0" function="internal">
        <lane id=":1055_0_0" index="0" speed="3.65" length="4.67" shape="8782.99,7483.71 8783.56,7485.04 8783.46,7485.93 8782.68,7486.38 8781.24,7486.39"/>
    </edge>
    <edge id=":1057_0" function="internal">
        <lane id=":1057_0_0" index="0" speed="6.21" length="11.49" shape="5007.48,5269.69 5005.75,5272.69 5003.79,5273.87 5001.61,5273.21 4999.19,5270.73"/>
    </edge>
    <edge id=":1057_1" function="internal">
        <lane id=":1057_1_0" index="0" speed="3.97" length="3.83" shape="5001.76,5268.82 5002.56,5269.65 5003.29,5269.86 5003.94,5269.47 5004.52,5268.47"/>
    </edge>
    <edge id=":106_0" function="internal">
        <lane id=":106_0_0" index="0" speed="13.89" length="0.59" shape="15033.29,20514.58 15033.11,20514.61 15033.00,20514.65 15032.89,20514.70 15032.74,20514.79"/>
    </edge>
    <edge id=":106_1" function="internal">
        <lane id=":106_1_0" index="0" speed="9.84" length="1.77" shape="15031.06,20512.07 15031.51,20511.80 15031.83,20511.64 15032.18,20511.54 15032.69,20511.43"/>
    </edge>
    <edge id=":1061_0" function="internal">
        <lane id=":1061_0_0" index="0" speed="8.09" length="12.27" shape="3732.72,3570.51 3730.07,3567.49 3727.49,3565.66 3724.98,3565.00 3722.54,3565.53"/>
    </edge>
    <edge id=":1061_1" function="internal">
        <lane id=":1061_1_0" index="0" speed="7.38" length="17.65" shape="3732.72,3570.51 3730.04,3565.78 3730.06,3562.39 3732.75,3560.32 3738.13,3559.60"/>
    </edge>
    <edge id=":1061_2" function="internal">
        <lane id=":1061_2_0" index="0" speed="3.65" length="1.44" shape="3732.72,3570.51 3732.64,3569.07"/>
    </edge>
    <edge id=":1061_9" function="internal">
        <lane id=":1061_9_0" index="0" speed="3.65" length="3.23" shape="3732.64,3569.07 3733.05,3568.27 3733.93,3568.11 3735.29,3568.60"/>
    </edge>
    <edge id=":1061_3" function="internal">
        <lane id=":1061_3_0" index="0" speed="5.57" length="9.38" shape="3738.16,3562.80 3735.30,3563.18 3733.87,3564.28 3733.86,3566.08 3735.29,3568.60"/>
    </edge>
    <edge id=":1061_4" function="internal">
        <lane id=":1061_4_0" index="0" speed="13.89" length="15.97" shape="3738.16,3562.80 3734.25,3562.95 3730.18,3563.39 3726.19,3564.22 3722.54,3565.53"/>
    </edge>
    <edge id=":1061_5" function="internal">
        <lane id=":1061_5_0" index="0" speed="3.65" length="1.44" shape="3738.16,3562.80 3736.96,3562.01"/>
    </edge>
    <edge id=":1061_10" function="internal">
        <lane id=":1061_10_0" index="0" speed="3.65" length="3.23" shape="3736.96,3562.01 3736.55,3561.21 3736.94,3560.41 3738.13,3559.60"/>
    </edge>
    <edge id=":1061_6" function="internal">
        <lane id=":1061_6_0" index="0" speed="13.89" length="17.31" shape="3721.19,3562.63 3725.04,3561.27 3729.49,3560.34 3734.01,3559.79 3738.13,3559.60"/>
    </edge>
    <edge id=":1061_7" function="internal">
        <lane id=":1061_7_0" index="0" speed="9.35" length="4.12" shape="3721.19,3562.63 3724.76,3561.75 3725.19,3561.84"/>
    </edge>
    <edge id=":1061_8" function="internal">
        <lane id=":1061_8_0" index="0" speed="3.65" length="1.44" shape="3721.19,3562.63 3722.61,3562.85"/>
    </edge>
    <edge id=":1061_11" function="internal">
        <lane id=":1061_11_0" index="0" speed="9.35" length="12.55" shape="3725.19,3561.84 3728.30,3562.45 3731.81,3564.73 3735.29,3568.60"/>
    </edge>
    <edge id=":1061_12" function="internal">
        <lane id=":1061_12_0" index="0" speed="3.65" length="3.23" shape="3722.61,3562.85 3723.31,3563.41 3723.29,3564.30 3722.54,3565.53"/>
    </edge>
    <edge id=":1063_0" function="internal">
        <lane id=":1063_0_0" index="0" speed="6.23" length="11.72" shape="8769.15,2401.61 8766.39,2399.37 8765.55,2397.22 8766.61,2395.17 8769.57,2393.21"/>
    </edge>
    <edge id=":1063_1" function="internal">
        <lane id=":1063_1_0" index="0" speed="3.98" length="3.91" shape="8770.97,2396.09 8769.98,2396.74 8769.63,2397.43 8769.91,2398.14 8770.83,2398.89"/>
    </edge>
    <edge id=":1065_0" function="internal">
        <lane id=":1065_0_0" index="0" speed="13.89" length="17.79" shape="9977.68,1804.22 9975.88,1808.00 9974.15,1812.38 9972.60,1816.83 9971.37,1820.84"/>
    </edge>
    <edge id=":1065_1" function="internal">
        <lane id=":1065_1_0" index="0" speed="13.89" length="18.56" shape="9977.68,1804.22 9975.10,1807.61 9971.42,1810.93 9967.33,1813.83 9963.57,1815.97"/>
    </edge>
    <edge id=":1065_2" function="internal">
        <lane id=":1065_2_0" index="0" speed="8.92" length="17.09" shape="9977.68,1804.22 9975.21,1807.18 9971.87,1808.56 9967.65,1808.34 9962.56,1806.55"/>
    </edge>
    <edge id=":1065_3" function="internal">
        <lane id=":1065_3_0" index="0" speed="3.65" length="1.44" shape="9977.68,1804.22 9976.40,1804.90"/>
    </edge>
    <edge id=":1065_16" function="internal">
        <lane id=":1065_16_0" index="0" speed="3.65" length="3.23" shape="9976.40,1804.90 9975.51,1804.87 9975.00,1804.14 9974.86,1802.70"/>
    </edge>
    <edge id=":1065_4" function="internal">
        <lane id=":1065_4_0" index="0" speed="7.61" length="12.18" shape="9963.92,1803.65 9967.72,1805.05 9970.82,1805.36 9973.20,1804.58 9974.86,1802.70"/>
    </edge>
    <edge id=":1065_5" function="internal">
        <lane id=":1065_5_0" index="0" speed="10.16" length="20.70" shape="9963.92,1803.65 9968.48,1806.64 9971.24,1810.51 9972.21,1815.24 9971.37,1820.84"/>
    </edge>
    <edge id=":1065_6" function="internal">
        <lane id=":1065_6_0" index="0" speed="7.44" length="18.43" shape="9963.92,1803.65 9968.67,1806.65 9970.19,1809.71 9968.49,1812.82 9963.57,1815.97"/>
    </edge>
    <edge id=":1065_7" function="internal">
        <lane id=":1065_7_0" index="0" speed="3.65" length="1.44" shape="9963.92,1803.65 9964.67,1804.88"/>
    </edge>
    <edge id=":1065_17" function="internal">
        <lane id=":1065_17_0" index="0" speed="3.65" length="3.23" shape="9964.67,1804.88 9964.69,1805.78 9963.99,1806.33 9962.56,1806.55"/>
    </edge>
    <edge id=":1065_8" function="internal">
        <lane id=":1065_8_0" index="0" speed="5.61" length="9.79" shape="9962.17,1813.10 9964.83,1811.40 9965.79,1809.74 9965.03,1808.12 9962.56,1806.55"/>
    </edge>
    <edge id=":1065_9" function="internal">
        <lane id=":1065_9_0" index="0" speed="13.89" length="16.62" shape="9962.17,1813.10 9965.71,1811.17 9969.31,1808.73 9972.51,1805.87 9974.86,1802.70"/>
    </edge>
    <edge id=":1065_10" function="internal">
        <lane id=":1065_10_0" index="0" speed="7.40" length="18.68" shape="9962.17,1813.10 9967.73,1811.15 9971.12,1811.80 9972.33,1815.02 9971.37,1820.84"/>
    </edge>
    <edge id=":1065_11" function="internal">
        <lane id=":1065_11_0" index="0" speed="3.65" length="1.44" shape="9962.17,1813.10 9963.60,1813.29"/>
    </edge>
    <edge id=":1065_18" function="internal">
        <lane id=":1065_18_0" index="0" speed="3.65" length="3.23" shape="9963.60,1813.29 9964.30,1813.83 9964.29,1814.73 9963.57,1815.97"/>
    </edge>
    <edge id=":1065_12" function="internal">
        <lane id=":1065_12_0" index="0" speed="5.50" length="9.59" shape="9968.29,1819.95 9968.79,1816.96 9968.16,1815.31 9966.42,1814.98 9963.57,1815.97"/>
    </edge>
    <edge id=":1065_13" function="internal">