<?xml version="1.0" encoding="UTF-8"?>

<!-- generated on 2025-03-31 04:16:57 by Eclipse SUMO netgenerate Version 1.22.0
<netgenerateConfiguration xmlns:xsi="http://www.w3.org/2001/XMLSchema-instance" xsi:noNamespaceSchemaLocation="http://sumo.dlr.de/xsd/netgenerateConfiguration.xsd">

    <random_network>
        <rand value="true"/>
        <rand.iterations value="138"/>
        <rand.max-distance value="2833.982474376812"/>
        <rand.min-distance value="512.9515415190526"/>
        <rand.min-angle value="34.722427255319005"/>
        <rand.neighbor-dist1 value="1.0"/>
        <rand.neighbor-dist2 value="10.0"/>
        <rand.neighbor-dist3 value="5.0"/>
        <rand.neighbor-dist4 value="5.0"/>
        <rand.neighbor-dist5 value="0.0"/>
        <rand.neighbor-dist6 value="0.0"/>
    </random_network>

    <output>
        <output-file value="configs/rand-configs/rand0.net.xml"/>
    </output>

    <tls_building>
        <tls.guess value="true"/>
        <tls.guess.threshold value="0"/>
    </tls_building>

</netgenerateConfiguration>
-->

<net version="1.20" junctionCornerDetail="5" limitTurnSpeed="5.50" xmlns:xsi="http://www.w3.org/2001/XMLSchema-instance" xsi:noNamespaceSchemaLocation="http://sumo.dlr.de/xsd/net_file.xsd">

    <location netOffset="14282.03,29066.86" convBoundary="0.00,0.00,20437.79,34415.43" origBoundary="-14282.03,-29066.86,6155.76,5348.57" projParameter="!"/>

    <edge id=":1_0" function="internal">
        <lane id=":1_0_0" index="0" speed="11.26" length="16.20" shape="14280.55,29074.26 14279.92,29071.05 14278.14,29067.90 14275.21,29064.84 14271.12,29061.84"/>
    </edge>
    <edge id=":1_1" function="internal">
        <lane id=":1_1_0" index="0" speed="13.89" length="18.84" shape="14280.55,29074.26 14280.23,29069.93 14279.53,29064.92 14278.62,29059.92 14277.70,29055.67"/>
    </edge>
    <edge id=":1_2" function="internal">
        <lane id=":1_2_0" index="0" speed="7.91" length="3.57" shape="14280.55,29074.26 14281.00,29070.72"/>
    </edge>
    <edge id=":1_3" function="internal">
        <lane id=":1_3_0" index="0" speed="3.65" length="1.44" shape="14280.55,29074.26 14281.33,29073.05"/>
    </edge>
    <edge id=":1_16" function="internal">
        <lane id=":1_16_0" index="0" speed="7.91" length="10.83" shape="14281.00,29070.72 14281.05,29070.32 14282.70,29067.55 14285.51,29065.96 14289.46,29065.54"/>
    </edge>
    <edge id=":1_17" function="internal">
        <lane id=":1_17_0" index="0" speed="3.65" length="3.23" shape="14281.33,29073.05 14282.12,29072.64 14282.93,29073.03 14283.74,29074.21"/>
    </edge>
    <edge id=":1_4" function="internal">
        <lane id=":1_4_0" index="0" speed="6.39" length="9.04" shape="14289.34,29068.74 14286.86,29069.00 14285.10,29070.00 14284.06,29071.74 14283.74,29074.21"/>
    </edge>
    <edge id=":1_5" function="internal">
        <lane id=":1_5_0" index="0" speed="13.89" length="19.61" shape="14289.34,29068.74 14284.98,29067.96 14279.94,29066.23 14275.05,29064.02 14271.12,29061.84"/>
    </edge>
    <edge id=":1_6" function="internal">
        <lane id=":1_6_0" index="0" speed="10.07" length="4.78" shape="14289.34,29068.74 14285.90,29067.43 14285.08,29066.69"/>
    </edge>
    <edge id=":1_7" function="internal">
        <lane id=":1_7_0" index="0" speed="3.65" length="1.44" shape="14289.34,29068.74 14288.17,29067.90"/>
    </edge>
    <edge id=":1_18" function="internal">
        <lane id=":1_18_0" index="0" speed="10.07" length="13.48" shape="14285.08,29066.69 14282.42,29064.27 14279.49,29060.08 14277.70,29055.67"/>
    </edge>
    <edge id=":1_19" function="internal">
        <lane id=":1_19_0" index="0" speed="3.65" length="3.23" shape="14288.17,29067.90 14287.80,29067.08 14288.23,29066.30 14289.46,29065.54"/>
    </edge>
    <edge id=":1_8" function="internal">
        <lane id=":1_8_0" index="0" speed="9.08" length="14.69" shape="14280.81,29054.92 14282.28,29059.48 14284.22,29062.77 14286.61,29064.79 14289.46,29065.54"/>
    </edge>
    <edge id=":1_9" function="internal">
        <lane id=":1_9_0" index="0" speed="13.89" length="19.54" shape="14280.81,29054.92 14281.75,29059.28 14282.68,29064.52 14283.42,29069.77 14283.74,29074.21"/>
    </edge>
    <edge id=":1_10" function="internal">
        <lane id=":1_10_0" index="0" speed="7.43" length="6.42" shape="14280.81,29054.92 14281.59,29061.13 14281.53,29061.28"/>
    </edge>
    <edge id=":1_11" function="internal">
        <lane id=":1_11_0" index="0" speed="3.65" length="1.44" shape="14280.81,29054.92 14280.31,29056.28"/>
    </edge>
    <edge id=":1_20" function="internal">
        <lane id=":1_20_0" index="0" speed="7.43" length="13.09" shape="14281.53,29061.28 14280.24,29064.36 14276.75,29064.59 14271.12,29061.84"/>
    </edge>
    <edge id=":1_21" function="internal">
        <lane id=":1_21_0" index="0" speed="3.65" length="3.23" shape="14280.31,29056.28 14279.62,29056.85 14278.75,29056.65 14277.70,29055.67"/>
    </edge>
    <edge id=":1_12" function="internal">
        <lane id=":1_12_0" index="0" speed="5.47" length="9.79" shape="14272.84,29059.14 14275.66,29060.52 14277.41,29060.40 14278.09,29058.78 14277.70,29055.67"/>
    </edge>
    <edge id=":1_13" function="internal">
        <lane id=":1_13_0" index="0" speed="13.89" length="17.96" shape="14272.84,29059.14 14276.51,29061.24 14280.86,29063.28 14285.35,29064.84 14289.46,29065.54"/>
    </edge>
    <edge id=":1_14" function="internal">
        <lane id=":1_14_0" index="0" speed="12.18" length="5.03" shape="14272.84,29059.14 14276.74,29062.32"/>
    </edge>
    <edge id=":1_15" function="internal">
        <lane id=":1_15_0" index="0" speed="3.65" length="1.44" shape="14272.84,29059.14 14273.42,29060.46"/>
    </edge>
    <edge id=":1_22" function="internal">
        <lane id=":1_22_0" index="0" speed="12.18" length="14.02" shape="14276.74,29062.32 14280.23,29066.38 14282.75,29070.59 14283.74,29074.21"/>
    </edge>
    <edge id=":1_23" function="internal">
        <lane id=":1_23_0" index="0" speed="3.65" length="3.23" shape="14273.42,29060.46 14273.33,29061.35 14272.57,29061.81 14271.12,29061.84"/>
    </edge>
    <edge id=":10_0" function="internal">
        <lane id=":10_0_0" index="0" speed="13.89" length="17.30" shape="12163.61,27037.28 12160.35,27034.75 12156.95,27031.72 12153.82,27028.44 12151.38,27025.15"/>
    </edge>
    <edge id=":10_1" function="internal">
        <lane id=":10_1_0" index="0" speed="7.38" length="5.73" shape="12163.61,27037.28 12159.60,27033.54 12159.53,27033.30"/>
    </edge>
    <edge id=":10_2" function="internal">
        <lane id=":10_2_0" index="0" speed="3.65" length="1.44" shape="12163.61,27037.28 12163.10,27035.93"/>
    </edge>
    <edge id=":10_9" function="internal">
        <lane id=":10_9_0" index="0" speed="7.38" length="12.03" shape="12159.53,27033.30 12158.59,27030.29 12160.59,27027.54 12165.58,27025.28"/>
    </edge>
    <edge id=":10_10" function="internal">
        <lane id=":10_10_0" index="0" speed="3.65" length="3.23" shape="12163.10,27035.93 12163.25,27035.05 12164.04,27034.63 12165.48,27034.69"/>
    </edge>
    <edge id=":10_3" function="internal">
        <lane id=":10_3_0" index="0" speed="5.56" length="9.40" shape="12166.53,27028.33 12163.88,27029.53 12162.83,27030.99 12163.36,27032.71 12165.48,27034.69"/>
    </edge>
    <edge id=":10_4" function="internal">
        <lane id=":10_4_0" index="0" speed="9.53" length="16.74" shape="12166.53,27028.33 12161.41,27029.43 12157.18,27029.26 12153.84,27027.84 12151.38,27025.15"/>
    </edge>
    <edge id=":10_5" function="internal">
        <lane id=":10_5_0" index="0" speed="3.65" length="1.44" shape="12166.53,27028.33 12165.14,27027.92"/>
    </edge>
    <edge id=":10_11" function="internal">
        <lane id=":10_11_0" index="0" speed="3.65" length="3.23" shape="12165.14,27027.92 12164.52,27027.28 12164.67,27026.40 12165.58,27025.28"/>
    </edge>
    <edge id=":10_6" function="internal">
        <lane id=":10_6_0" index="0" speed="8.30" length="12.48" shape="12154.12,27023.50 12155.86,27025.29 12158.35,27026.19 12161.59,27026.18 12165.58,27025.28"/>
    </edge>
    <edge id=":10_7" function="internal">
        <lane id=":10_7_0" index="0" speed="13.89" length="16.04" shape="12154.12,27023.50 12156.42,27026.64 12159.25,27029.60 12162.36,27032.30 12165.48,27034.69"/>
    </edge>
    <edge id=":10_8" function="internal">
        <lane id=":10_8_0" index="0" speed="3.65" length="1.44" shape="12154.12,27023.50 12154.06,27024.94"/>
    </edge>
    <edge id=":10_12" function="internal">
        <lane id=":10_12_0" index="0" speed="3.65" length="3.23" shape="12154.06,27024.94 12153.58,27025.69 12152.69,27025.77 12151.38,27025.15"/>
    </edge>
    <edge id=":101_0" function="internal">
        <lane id=":101_0_0" index="0" speed="13.89" length="0.92" shape="9784.41,25069.27 9784.17,25069.15 9783.99,25069.10 9783.80,25069.09 9783.53,25069.11"/>
    </edge>
    <edge id=":101_1" function="internal">
        <lane id=":101_1_0" index="0" speed="7.33" length="2.76" shape="9783.18,25065.93 9783.99,25065.86 9784.56,25065.89 9785.10,25066.05 9785.83,25066.40"/>
    </edge>
    <edge id=":1037_0" function="internal">
        <lane id=":1037_0_0" index="0" speed="13.89" length="15.73" shape="8221.71,12613.27 8221.48,12609.41 8221.54,12605.41 8221.85,12601.42 8222.43,12597.60"/>
    </edge>
    <edge id=":1037_1" function="internal">
        <lane id=":1037_1_0" index="0" speed="7.87" length="4.45" shape="8221.71,12613.27 8221.90,12609.21 8222.08,12608.87"/>
    </edge>
    <edge id=":1037_2" function="internal">
        <lane id=":1037_2_0" index="0" speed="3.65" length="1.44" shape="8221.71,12613.27 8222.39,12612.00"/>
    </edge>
    <edge id=":1037_9" function="internal">
        <lane id=":1037_9_0" index="0" speed="7.87" length="10.38" shape="8222.08,12608.87 8223.42,12606.32 8226.25,12604.60 8230.39,12604.04"/>
    </edge>
    <edge id=":1037_10" function="internal">
        <lane id=":1037_10_0" index="0" speed="3.65" length="3.23" shape="8222.39,12612.00 8223.14,12611.52 8223.98,12611.84 8224.89,12612.95"/>
    </edge>
    <edge id=":1037_3" function="internal">
        <lane id=":1037_3_0" index="0" speed="6.35" length="9.26" shape="8230.37,12607.24 8227.76,12607.59 8225.98,12608.65 8225.02,12610.44 8224.89,12612.95"/>
    </edge>
    <edge id=":1037_4" function="internal">
        <lane id=":1037_4_0" index="0" speed="7.72" length="14.92" shape="8230.37,12607.24 8226.22,12606.62 8223.51,12604.80 8222.25,12601.79 8222.43,12597.60"/>
    </edge>
    <edge id=":1037_5" function="internal">
        <lane id=":1037_5_0" index="0" speed="3.65" length="1.44" shape="8230.37,12607.24 8229.18,12606.44"/>
    </edge>
    <edge id=":1037_11" function="internal">
        <lane id=":1037_11_0" index="0" speed="3.65" length="3.23" shape="8229.18,12606.44 8228.78,12605.63 8229.19,12604.84 8230.39,12604.04"/>
    </edge>
    <edge id=":1037_6" function="internal">
        <lane id=":1037_6_0" index="0" speed="6.15" length="9.05" shape="8225.57,12598.19 8225.46,12600.74 8226.23,12602.56 8227.87,12603.66 8230.39,12604.04"/>
    </edge>
    <edge id=":1037_7" function="internal">
        <lane id=":1037_7_0" index="0" speed="13.89" length="14.83" shape="8225.57,12598.19 8225.01,12601.87 8224.70,12605.55 8224.66,12609.24 8224.89,12612.95"/>
    </edge>
    <edge id=":1037_8" function="internal">
        <lane id=":1037_8_0" index="0" speed="3.65" length="1.44" shape="8225.57,12598.19 8224.56,12599.22"/>
    </edge>
    <edge id=":1037_12" function="internal">
        <lane id=":1037_12_0" index="0" speed="3.65" length="3.23" shape="8224.56,12599.22 8223.70,12599.47 8222.99,12598.93 8222.43,12597.60"/>
    </edge>
    <edge id=":1039_0" function="internal">
        <lane id=":1039_0_0" index="0" speed="3.95" length="2.01" shape="9356.15,26428.79 9355.88,26428.34 9355.52,26428.03 9355.08,26427.86 9354.55,26427.84"/>
    </edge>
    <edge id=":1039_1" function="internal">
        <lane id=":1039_1_0" index="0" speed="6.17" length="6.03" shape="9354.26,26424.65 9355.85,26424.72 9357.19,26425.21 9358.26,26426.14 9359.08,26427.51"/>
    </edge>
    <edge id=":1052_0" function="internal">
        <lane id=":1052_0_0" index="0" speed="6.19" length="11.23" shape="17096.57,31332.62 17094.56,31329.92 17094.25,31327.69 17095.65,31325.92 17098.76,31324.63"/>
    </edge>
    <edge id=":1052_1" function="internal">
        <lane id=":1052_1_0" index="0" speed="3.96" length="3.74" shape="17099.59,31327.72 17098.55,31328.15 17098.08,31328.74 17098.19,31329.48 17098.86,31330.38"/>
    </edge>
    <edge id=":1056_0" function="internal">
        <lane id=":1056_0_0" index="0" speed="11.19" length="12.00" shape="2995.93,28651.50 2994.82,28649.34 2993.00,28647.32 2990.47,28645.43 2987.22,28643.68"/>
    </edge>
    <edge id=":1056_1" function="internal">
        <lane id=":1056_1_0" index="0" speed="13.89" length="14.49" shape="2995.93,28651.50 2995.02,28647.96 2994.61,28644.42 2994.57,28640.83 2994.76,28637.15"/>
    </edge>
    <edge id=":1056_2" function="internal">
        <lane id=":1056_2_0" index="0" speed="3.65" length="1.44" shape="2995.93,28651.50 2996.30,28650.10"/>
    </edge>
    <edge id=":1056_9" function="internal">
        <lane id=":1056_9_0" index="0" speed="3.65" length="3.23" shape="2996.30,28650.10 2996.93,28649.47 2997.82,28649.59 2998.96,28650.48"/>
    </edge>
    <edge id=":1056_3" function="internal">
        <lane id=":1056_3_0" index="0" speed="13.89" length="13.23" shape="2997.95,28637.39 2997.73,28640.87 2997.72,28644.02 2998.08,28647.13 2998.96,28650.48"/>
    </edge>
    <edge id=":1056_4" function="internal">
        <lane id=":1056_4_0" index="0" speed="7.51" length="4.27" shape="2997.95,28637.39 2997.05,28641.56"/>
    </edge>
    <edge id=":1056_5" function="internal">
        <lane id=":1056_5_0" index="0" speed="3.65" length="1.44" shape="2997.95,28637.39 2997.07,28638.52"/>
    </edge>
    <edge id=":1056_10" function="internal">
        <lane id=":1056_10_0" index="0" speed="7.51" length="11.55" shape="2997.05,28641.56 2996.98,28641.88 2994.87,28644.43 2991.62,28645.03 2987.22,28643.68"/>
    </edge>
    <edge id=":1056_11" function="internal">
        <lane id=":1056_11_0" index="0" speed="3.65" length="3.23" shape="2997.07,28638.52 2996.24,28638.87 2995.47,28638.41 2994.76,28637.15"/>
    </edge>
    <edge id=":1056_6" function="internal">
        <lane id=":1056_6_0" index="0" speed="5.86" length="9.12" shape="2988.57,28640.78 2991.11,28641.56 2992.99,28641.21 2994.20,28639.75 2994.76,28637.15"/>
    </edge>
    <edge id=":1056_7" function="internal">
        <lane id=":1056_7_0" index="0" speed="12.30" length="14.58" shape="2988.57,28640.78 2992.39,28642.87 2995.40,28645.18 2997.59,28647.72 2998.96,28650.48"/>
    </edge>
    <edge id=":1056_8" function="internal">
        <lane id=":1056_8_0" index="0" speed="3.65" length="1.44" shape="2988.57,28640.78 2989.32,28642.01"/>
    </edge>
    <edge id=":1056_12" function="internal">
        <lane id=":1056_12_0" index="0" speed="3.65" length="3.23" shape="2989.32,28642.01 2989.34,28642.91 2988.64,28643.46 2987.22,28643.68"/>
    </edge>
    <edge id=":1058_0" function="internal">
        <lane id=":1058_0_0" index="0" speed="6.28" length="12.33" shape="18876.39,21395.81 18879.66,21397.71 18880.86,21399.76 18879.98,21401.97 18877.01,21404.33"/>
    </edge>
    <edge id=":1058_1" function="internal">
        <lane id=":1058_1_0" index="0" speed="4.01" length="4.11" shape="18875.35,21401.60 18876.34,21400.81 18876.63,21400.07 18876.23,21399.39 18875.14,21398.76"/>
    </edge>
    <edge id=":1062_0" function="internal">
        <lane id=":1062_0_0" index="0" speed="6.81" length="17.13" shape="16962.18,22568.91 16957.05,22571.39 16954.19,22571.23 16953.59,22568.42 16955.25,22562.98"/>
    </edge>
    <edge id=":1062_1" function="internal">
        <lane id=":1062_1_0" index="0" speed="4.29" length="5.71" shape="16958.21,22564.20 16957.65,22566.01 16957.85,22566.95 16958.81,22567.00 16960.52,22566.17"/>
    </edge>
    <edge id=":109_0" function="internal">
        <lane id=":109_0_0" index="0" speed="5.98" length="9.08" shape="7227.93,25355.01 7226.90,25352.63 7225.41,25351.38 7223.47,25351.28 7221.09,25352.32"/>
    </edge>
    <edge id=":109_1" function="internal">
        <lane id=":109_1_0" index="0" speed="13.89" length="18.22" shape="7227.93,25355.01 7227.39,25350.83 7227.64,25345.98 7228.54,25341.18 7229.92,25337.16"/>
    </edge>
    <edge id=":109_2" function="internal">
        <lane id=":109_2_0" index="0" speed="8.19" length="5.47" shape="7227.93,25355.01 7227.48,25350.65 7227.88,25349.64"/>
    </edge>
    <edge id=":109_3" function="internal">
        <lane id=":109_3_0" index="0" speed="3.65" length="1.44" shape="7227.93,25355.01 7228.39,25353.65"/>
    </edge>
    <edge id=":109_16" function="internal">
        <lane id=":109_16_0" index="0" speed="8.19" length="11.26" shape="7227.88,25349.64 7228.79,25347.35 7231.88,25345.13 7236.74,25343.96"/>
    </edge>
    <edge id=":109_17" function="internal">
        <lane id=":109_17_0" index="0" speed="3.65" length="3.23" shape="7228.39,25353.65 7229.05,25353.05 7229.93,25353.22 7231.02,25354.17"/>
    </edge>
    <edge id=":109_4" function="internal">
        <lane id=":109_4_0" index="0" speed="6.75" length="10.97" shape="7237.08,25347.15 7233.80,25347.90 7231.69,25349.33 7230.76,25351.41 7231.02,25354.17"/>
    </edge>
    <edge id=":109_5" function="internal">
        <lane id=":109_5_0" index="0" speed="13.89" length="16.92" shape="7237.08,25347.15 7233.09,25347.81 7228.82,25348.95 7224.68,25350.48 7221.09,25352.32"/>
    </edge>
    <edge id=":109_6" function="internal">
        <lane id=":109_6_0" index="0" speed="7.40" length="3.64" shape="7237.08,25347.15 7233.45,25347.06"/>
    </edge>
    <edge id=":109_7" function="internal">
        <lane id=":109_7_0" index="0" speed="3.65" length="1.44" shape="7237.08,25347.15 7235.81,25346.48"/>
    </edge>
    <edge id=":109_18" function="internal">
        <lane id=":109_18_0" index="0" speed="7.40" length="13.31" shape="7233.45,25347.06 7231.97,25347.03 7229.07,25345.33 7228.39,25342.04 7229.92,25337.16"/>
    </edge>
    <edge id=":109_19" function="internal">
        <lane id=":109_19_0" index="0" speed="3.65" length="3.23" shape="7235.81,25346.48 7235.32,25345.73 7235.63,25344.89 7236.74,25343.96"/>
    </edge>
    <edge id=":109_8" function="internal">
        <lane id=":109_8_0" index="0" speed="5.65" length="9.26" shape="7232.83,25338.51 7231.99,25341.17 7232.36,25342.97 7233.94,25343.90 7236.74,25343.96"/>
    </edge>
    <edge id=":109_9" function="internal">
        <lane id=":109_9_0" index="0" speed="13.89" length="16.04" shape="7232.83,25338.51 7231.47,25342.19 7230.64,25346.23 7230.45,25350.33 7231.02,25354.17"/>
    </edge>
    <edge id=":109_10" function="internal">
        <lane id=":109_10_0" index="0" speed="13.89" length="18.30" shape="7232.83,25338.51 7230.70,25342.21 7227.76,25346.13 7224.42,25349.69 7221.09,25352.32"/>
    </edge>
    <edge id=":109_11" function="internal">
        <lane id=":109_11_0" index="0" speed="3.65" length="1.33" shape="7232.83,25338.51 7231.69,25339.20"/>
    </edge>
    <edge id=":109_20" function="internal">
        <lane id=":109_20_0" index="0" speed="3.65" length="3.34" shape="7231.69,25339.20 7231.59,25339.26 7230.70,25339.28 7230.14,25338.58 7229.92,25337.16"/>
    </edge>
    <edge id=":109_12" function="internal">
        <lane id=":109_12_0" index="0" speed="13.89" length="16.48" shape="7219.41,25349.60 7222.55,25347.18 7225.47,25344.09 7227.99,25340.64 7229.92,25337.16"/>
    </edge>
    <edge id=":109_13" function="internal">
        <lane id=":109_13_0" index="0" speed="13.89" length="18.32" shape="7219.41,25349.60 7223.21,25347.69 7227.80,25346.00 7232.53,25344.70 7236.74,25343.96"/>
    </edge>
    <edge id=":109_14" function="internal">
        <lane id=":109_14_0" index="0" speed="7.59" length="5.22" shape="7219.41,25349.60 7223.45,25347.83 7224.25,25347.87"/>
    </edge>
    <edge id=":109_15" function="internal">
        <lane id=":109_15_0" index="0" speed="3.65" length="1.44" shape="7219.41,25349.60 7220.85,25349.65"/>
    </edge>
    <edge id=":109_21" function="internal">
        <lane id=":109_21_0" index="0" speed="7.59" length="10.20" shape="7224.25,25347.87 7226.74,25348.00 7229.26,25350.12 7231.02,25354.17"/>
    </edge>
    <edge id=":109_22" function="internal">
        <lane id=":109_22_0" index="0" speed="3.65" length="3.23" shape="7220.85,25349.65 7221.61,25350.12 7221.69,25351.01 7221.09,25352.32"/>
    </edge>
    <edge id=":1176_0" function="internal">
        <lane id=":1176_0_0" index="0" speed="13.89" length="0.32" shape="8646.02,10359.77 8645.99,10359.85 8645.97,10359.91 8645.95,10359.98 8645.93,10360.07"/>
    </edge>
    <edge id=":1176_1" function="internal">
        <lane id=":1176_1_0" index="0" speed="13.89" length="0.95" shape="8642.79,10359.48 8642.84,10359.20 8642.89,10359.01 8642.95,10358.83 8643.06,10358.57"/>
    </edge>
    <edge id=":1180_0" function="internal">
        <lane id=":1180_0_0" index="0" speed="6.26" length="12.10" shape="10778.77,12617.74 10780.44,12621.04 10780.33,12623.39 10778.43,12624.78 10774.76,12625.23"/>
    </edge>
    <edge id=":1180_1" function="internal">
        <lane id=":1180_1_0" index="0" speed="4.00" length="4.03" shape="10774.79,12622.03 10776.01,12621.88 10776.64,12621.41 10776.68,12620.63 10776.12,12619.53"/>
    </edge>
    <edge id=":1184_0" function="internal">
        <lane id=":1184_0_0" index="0" speed="7.73" length="2.44" shape="9903.49,27675.55 9902.92,27675.11 9902.57,27674.75 9902.31,27674.32 9902.01,27673.67"/>
    </edge>
    <edge id=":1184_1" function="internal">
        <lane id=":1184_1_0" index="0" speed="13.89" length="0.81" shape="9904.94,27672.38 9905.04,27672.60 9905.13,27672.74 9905.24,27672.86 9905.43,27673.01"/>
    </edge>
    <edge id=":119_0" function="internal">
        <lane id=":119_0_0" index="0" speed="6.47" length="4.28" shape="4998.39,26726.73 4997.41,26727.21 4996.39,26727.44 4995.35,26727.43 4994.28,26727.17"/>
    </edge>
    <edge id=":119_1" function="internal">
        <lane id=":119_1_0" index="0" speed="4.11" length="1.43" shape="4995.34,26724.15 4995.70,26724.24 4996.04,26724.24 4996.38,26724.17 4996.71,26724.01"/>
    </edge>
    <edge id=":1193_0" function="internal">
        <lane id=":1193_0_0" index="0" speed="5.89" length="9.11" shape="3802.69,31030.20 3800.35,31029.00 3798.43,31029.01 3796.94,31030.22 3795.89,31032.64"/>
    </edge>
    <edge id=":1193_1" function="internal">
        <lane id=":1193_1_0" index="0" speed="13.89" length="14.19" shape="3802.69,31030.20 3799.76,31028.02 3797.16,31025.66 3795.04,31022.95 3793.50,31019.71"/>
    </edge>
    <edge id=":1193_2" function="internal">
        <lane id=":1193_2_0" index="0" speed="3.65" length="1.44" shape="3802.69,31030.20 3802.17,31028.86"/>
    </edge>
    <edge id=":1193_9" function="internal">
        <lane id=":1193_9_0" index="0" speed="3.65" length="3.23" shape="3802.17,31028.86 3802.30,31027.97 3803.09,31027.55 3804.53,31027.58"/>
    </edge>
    <edge id=":1193_3" function="internal">
        <lane id=":1193_3_0" index="0" speed="13.61" length="12.23" shape="3796.53,31018.69 3797.88,31021.67 3799.60,31023.84 3801.78,31025.65 3804.53,31027.58"/>
    </edge>
    <edge id=":1193_4" function="internal">
        <lane id=":1193_4_0" index="0" speed="13.89" length="14.18" shape="3796.53,31018.69 3797.29,31022.19 3797.31,31025.63 3796.78,31029.09 3795.89,31032.64"/>
    </edge>
    <edge id=":1193_5" function="internal">
        <lane id=":1193_5_0" index="0" speed="3.65" length="1.44" shape="3796.53,31018.69 3796.16,31020.08"/>
    </edge>
    <edge id=":1193_10" function="internal">
        <lane id=":1193_10_0" index="0" speed="3.65" length="3.23" shape="3796.16,31020.08 3795.53,31020.72 3794.64,31020.59 3793.50,31019.71"/>
    </edge>
    <edge id=":1193_6" function="internal">
        <lane id=":1193_6_0" index="0" speed="13.89" length="12.33" shape="3792.81,31031.78 3793.70,31028.53 3794.25,31025.72 3794.25,31022.92 3793.50,31019.71"/>
    </edge>
    <edge id=":1193_7" function="internal">
        <lane id=":1193_7_0" index="0" speed="7.53" length="4.10" shape="3792.81,31031.78 3794.44,31028.03"/>
    </edge>
    <edge id=":1193_8" function="internal">
        <lane id=":1193_8_0" index="0" speed="3.65" length="1.44" shape="3792.81,31031.78 3793.90,31030.84"/>
    </edge>
    <edge id=":1193_11" function="internal">
        <lane id=":1193_11_0" index="0" speed="7.53" length="11.60" shape="3794.44,31028.03 3794.62,31027.62 3797.18,31025.53 3800.49,31025.52 3804.53,31027.58"/>
    </edge>
    <edge id=":1193_12" function="internal">
        <lane id=":1193_12_0" index="0" speed="3.65" length="3.23" shape="3793.90,31030.84 3794.78,31030.67 3795.44,31031.27 3795.89,31032.64"/>
    </edge>
    <edge id=":1195_0" function="internal">
        <lane id=":1195_0_0" index="0" speed="13.89" length="0.23" shape="1997.45,28179.83 1997.39,28179.81 1997.35,28179.79 1997.31,28179.77 1997.24,28179.75"/>
    </edge>
    <edge id=":1195_1" function="internal">
        <lane id=":1195_1_0" index="0" speed="13.89" length="0.68" shape="1998.18,28176.69 1998.37,28176.75 1998.50,28176.80 1998.63,28176.85 1998.81,28176.94"/>
    </edge>
    <edge id=":1203_0" function="internal">
        <lane id=":1203_0_0" index="0" speed="13.89" length="1.43" shape="12214.36,11536.30 12214.01,11536.07 12213.78,11535.89 12213.57,11535.67 12213.30,11535.35"/>
    </edge>
    <edge id=":1203_1" function="internal">
        <lane id=":1203_1_0" index="0" speed="13.89" length="0.48" shape="12215.78,11533.32 12215.87,11533.43 12215.94,11533.50 12216.01,11533.56 12216.13,11533.64"/>
    </edge>
    <edge id=":1208_0" function="internal">
        <lane id=":1208_0_0" index="0" speed="6.35" length="4.79" shape="10922.36,4893.29 10921.81,4892.18 10921.57,4891.05 10921.64,4889.89 10922.02,4888.71"/>
    </edge>
    <edge id=":1208_1" function="internal">
        <lane id=":1208_1_0" index="0" speed="4.04" length="1.60" shape="10924.94,4890.03 10924.81,4890.42 10924.78,4890.81 10924.87,4891.18 10925.05,4891.55"/>
    </edge>
    <edge id=":121_0" function="internal">
        <lane id=":121_0_0" index="0" speed="13.89" length="0.90" shape="8279.39,23090.43 8279.33,23090.69 8279.27,23090.86 8279.20,23091.03 8279.09,23091.28"/>
    </edge>
    <edge id=":121_1" function="internal">
        <lane id=":121_1_0" index="0" speed="13.89" length="0.30" shape="8276.19,23089.93 8276.23,23089.84 8276.25,23089.79 8276.27,23089.73 8276.29,23089.64"/>
    </edge>
    <edge id=":1217_0" function="internal">
        <lane id=":1217_0_0" index="0" speed="4.15" length="1.34" shape="10295.01,11908.48 10294.79,11908.21 10294.53,11908.01 10294.24,11907.87 10293.90,11907.79"/>
    </edge>
    <edge id=":1217_1" function="internal">
        <lane id=":1217_1_0" index="0" speed="6.54" length="4.02" shape="10294.34,11904.62 10295.34,11904.86 10296.23,11905.28 10297.00,11905.89 10297.66,11906.68"/>
    </edge>
    <edge id=":1219_0" function="internal">
        <lane id=":1219_0_0" index="0" speed="13.89" length="0.32" shape="11549.39,28934.16 11549.32,28934.09 11549.28,28934.05 11549.23,28934.00 11549.15,28933.95"/>
    </edge>
    <edge id=":1219_1" function="internal">
        <lane id=":1219_1_0" index="0" speed="13.89" length="0.96" shape="11551.10,28931.40 11551.32,28931.58 11551.47,28931.71 11551.61,28931.85 11551.80,28932.06"/>
    </edge>
    <edge id=":1223_0" function="internal">
        <lane id=":1223_0_0" index="0" speed="13.89" length="19.51" shape="3131.22,33429.72 3130.92,33425.33 3131.41,33420.06 3132.35,33414.81 3133.40,33410.46"/>
    </edge>
    <edge id=":1223_1" function="internal">
        <lane id=":1223_1_0" index="0" speed="10.95" length="4.19" shape="3131.22,33429.72 3131.26,33426.14 3131.52,33425.59"/>
    </edge>
    <edge id=":1223_2" function="internal">
        <lane id=":1223_2_0" index="0" speed="3.65" length="1.44" shape="3131.22,33429.72 3131.74,33428.38"/>
    </edge>
    <edge id=":1223_9" function="internal">
        <lane id=":1223_9_0" index="0" speed="10.95" length="14.87" shape="3131.52,33425.59 3132.94,33422.43 3136.23,33418.58 3141.15,33414.59"/>
    </edge>
    <edge id=":1223_10" function="internal">
        <lane id=":1223_10_0" index="0" speed="3.65" length="3.23" shape="3131.74,33428.38 3132.44,33427.82 3133.31,33428.04 3134.34,33429.04"/>
    </edge>
    <edge id=":1223_3" function="internal">
        <lane id=":1223_3_0" index="0" speed="9.87" length="15.35" shape="3143.00,33417.20 3138.81,33420.52 3135.97,33423.61 3134.48,33426.44 3134.34,33429.04"/>
    </edge>
    <edge id=":1223_4" function="internal">
        <lane id=":1223_4_0" index="0" speed="7.52" length="20.84" shape="3143.00,33417.20 3137.05,33420.57 3133.47,33420.57 3132.25,33417.20 3133.40,33410.46"/>
    </edge>
    <edge id=":1223_5" function="internal">
        <lane id=":1223_5_0" index="0" speed="3.65" length="1.44" shape="3143.00,33417.20 3141.56,33417.24"/>
    </edge>
    <edge id=":1223_11" function="internal">
        <lane id=":1223_11_0" index="0" speed="3.65" length="3.23" shape="3141.56,33417.24 3140.77,33416.82 3140.63,33415.93 3141.15,33414.59"/>
    </edge>
    <edge id=":1223_6" function="internal">
        <lane id=":1223_6_0" index="0" speed="5.46" length="10.13" shape="3136.49,33411.31 3135.93,33414.59 3136.52,33416.22 3138.26,33416.22 3141.15,33414.59"/>
    </edge>
    <edge id=":1223_7" function="internal">
        <lane id=":1223_7_0" index="0" speed="13.89" length="17.98" shape="3136.49,33411.31 3135.44,33415.43 3134.52,33420.15 3134.04,33424.88 3134.34,33429.04"/>
    </edge>
    <edge id=":1223_8" function="internal">
        <lane id=":1223_8_0" index="0" speed="3.65" length="1.44" shape="3136.49,33411.31 3135.40,33412.25"/>
    </edge>