<?xml version="1.0" encoding="UTF-8"?>

<!-- generated on 2025-04-14 12:45:23 by Eclipse SUMO netgenerate Version 1.22.0
<netgenerateConfiguration xmlns:xsi="http://www.w3.org/2001/XMLSchema-instance" xsi:noNamespaceSchemaLocation="http://sumo.dlr.de/xsd/netgenerateConfiguration.xsd">

    <random_network>
        <rand value="true"/>
        <rand.iterations value="501"/>
        <rand.max-distance value="1208.2697840110918"/>
        <rand.min-distance value="150.0"/>
        <rand.min-angle value="53.43396789565972"/>
        <rand.neighbor-dist1 value="3.0"/>
        <rand.neighbor-dist2 value="1.0"/>
        <rand.neighbor-dist3 value="0.0"/>
        <rand.neighbor-dist4 value="5.0"/>
        <rand.neighbor-dist5 value="0.0"/>
        <rand.neighbor-dist6 value="0.0"/>
    </random_network>

    <output>
        <output-file value="configs/rand-configs/rand1.net.xml"/>
    </output>

    <tls_building>
        <tls.guess value="true"/>
        <tls.guess.threshold value="0"/>
    </tls_building>

</netgenerateConfiguration>
-->

<net version="1.20" junctionCornerDetail="5" limitTurnSpeed="5.50" xmlns:xsi="http://www.w3.org/2001/XMLSchema-instance" xsi:noNamespaceSchemaLocation="http://sumo.dlr.de/xsd/net_file.xsd">

    <location netOffset="8331.33,6980.97" convBoundary="0.00,0.00,18691.69,12365.86" origBoundary="-8331.33,-6980.97,10360.35,5384.90" projParameter="!"/>

    <edge id=":1_0" function="internal">
        <lane id=":1_0_0" index="0" speed="5.98" length="9.08" shape="8329.86,6989.26 8329.46,6986.69 8328.33,6985.12 8326.48,6984.53 8323.91,6984.95"/>
    </edge>
    <edge id=":1_1" function="internal">
        <lane id=":1_1_0" index="0" speed="13.89" length="14.86" shape="8329.86,6989.26 8329.73,6985.54 8329.41,6981.85 8328.89,6978.18 8328.14,6974.53"/>
    </edge>
    <edge id=":1_2" function="internal">
        <lane id=":1_2_0" index="0" speed="8.09" length="4.36" shape="8329.86,6989.26 8330.36,6984.93"/>
    </edge>
    <edge id=":1_3" function="internal">
        <lane id=":1_3_0" index="0" speed="3.65" length="1.44" shape="8329.86,6989.26 8330.65,6988.05"/>
    </edge>
    <edge id=":1_16" function="internal">
        <lane id=":1_16_0" index="0" speed="8.09" length="10.76" shape="8330.36,6984.93 8332.01,6981.88 8334.81,6980.12 8338.77,6979.65"/>
    </edge>
    <edge id=":1_17" function="internal">
        <lane id=":1_17_0" index="0" speed="3.65" length="3.23" shape="8330.65,6988.05 8331.44,6987.64 8332.24,6988.02 8333.06,6989.21"/>
    </edge>
    <edge id=":1_4" function="internal">
        <lane id=":1_4_0" index="0" speed="6.62" length="9.76" shape="8338.64,6982.84 8336.16,6983.16 8334.41,6984.33 8333.37,6986.35 8333.06,6989.21"/>
    </edge>
    <edge id=":1_5" function="internal">
        <lane id=":1_5_0" index="0" speed="13.89" length="14.95" shape="8338.64,6982.84 8334.91,6982.88 8331.19,6983.27 8327.52,6983.97 8323.91,6984.95"/>
    </edge>
    <edge id=":1_6" function="internal">
        <lane id=":1_6_0" index="0" speed="9.03" length="3.93" shape="8338.64,6982.84 8334.77,6982.20"/>
    </edge>
    <edge id=":1_7" function="internal">
        <lane id=":1_7_0" index="0" speed="3.65" length="1.44" shape="8338.64,6982.84 8337.48,6982.00"/>
    </edge>
    <edge id=":1_18" function="internal">
        <lane id=":1_18_0" index="0" speed="9.03" length="10.59" shape="8334.77,6982.20 8331.73,6980.60 8329.52,6978.05 8328.14,6974.53"/>
    </edge>
    <edge id=":1_19" function="internal">
        <lane id=":1_19_0" index="0" speed="3.65" length="3.23" shape="8337.48,6982.00 8337.11,6981.18 8337.54,6980.40 8338.77,6979.65"/>
    </edge>
    <edge id=":1_8" function="internal">
        <lane id=":1_8_0" index="0" speed="7.70" length="10.32" shape="8331.26,6973.79 8332.23,6976.26 8333.81,6978.06 8335.99,6979.19 8338.77,6979.65"/>
    </edge>
    <edge id=":1_9" function="internal">
        <lane id=":1_9_0" index="0" speed="13.89" length="15.56" shape="8331.26,6973.79 8332.02,6977.55 8332.57,6981.45 8332.91,6985.38 8333.06,6989.21"/>
    </edge>
    <edge id=":1_10" function="internal">
        <lane id=":1_10_0" index="0" speed="8.41" length="4.08" shape="8331.26,6973.79 8331.54,6977.58 8331.45,6977.84"/>
    </edge>
    <edge id=":1_11" function="internal">
        <lane id=":1_11_0" index="0" speed="3.65" length="1.44" shape="8331.26,6973.79 8330.76,6975.14"/>
    </edge>
    <edge id=":1_20" function="internal">
        <lane id=":1_20_0" index="0" speed="8.41" length="10.92" shape="8331.45,6977.84 8330.41,6980.71 8327.87,6983.16 8323.91,6984.95"/>
    </edge>
    <edge id=":1_21" function="internal">
        <lane id=":1_21_0" index="0" speed="3.65" length="3.23" shape="8330.76,6975.14 8330.07,6975.72 8329.20,6975.51 8328.14,6974.53"/>
    </edge>
    <edge id=":1_12" function="internal">
        <lane id=":1_12_0" index="0" speed="7.00" length="10.09" shape="8322.96,6981.89 8325.71,6980.68 8327.49,6979.05 8328.30,6977.00 8328.14,6974.53"/>
    </edge>
    <edge id=":1_13" function="internal">
        <lane id=":1_13_0" index="0" speed="13.89" length="16.03" shape="8322.96,6981.89 8326.74,6980.89 8330.78,6980.14 8334.86,6979.71 8338.77,6979.65"/>
    </edge>
    <edge id=":1_14" function="internal">
        <lane id=":1_14_0" index="0" speed="7.59" length="4.78" shape="8322.96,6981.89 8327.32,6981.19 8327.66,6981.30"/>
    </edge>
    <edge id=":1_15" function="internal">
        <lane id=":1_15_0" index="0" speed="3.65" length="1.44" shape="8322.96,6981.89 8324.34,6982.30"/>
    </edge>
    <edge id=":1_22" function="internal">
        <lane id=":1_22_0" index="0" speed="7.59" length="10.63" shape="8327.66,6981.30 8330.46,6982.18 8332.37,6984.85 8333.06,6989.21"/>
    </edge>
    <edge id=":1_23" function="internal">
        <lane id=":1_23_0" index="0" speed="3.65" length="3.23" shape="8324.34,6982.30 8324.96,6982.94 8324.82,6983.83 8323.91,6984.95"/>
    </edge>
    <edge id=":10_0" function="internal">
        <lane id=":10_0_0" index="0" speed="6.15" length="6.24" shape="7719.68,7172.45 7718.05,7172.72 7716.60,7172.49 7715.33,7171.75 7714.25,7170.50"/>
    </edge>
    <edge id=":10_1" function="internal">
        <lane id=":10_1_0" index="0" speed="3.94" length="2.08" shape="7716.92,7168.74 7717.28,7169.16 7717.70,7169.41 7718.19,7169.48 7718.73,7169.39"/>
    </edge>
    <edge id=":10167_0" function="internal">
        <lane id=":10167_0_0" index="0" speed="6.15" length="6.30" shape="10973.57,3140.37 10971.91,3140.20 10970.57,3139.59 10969.54,3138.52 10968.84,3137.00"/>
    </edge>
    <edge id=":10167_1" function="internal">
        <lane id=":10167_1_0" index="0" speed="3.94" length="2.10" shape="10971.89,3136.05 10972.13,3136.56 10972.47,3136.91 10972.92,3137.12 10973.47,3137.17"/>
    </edge>
    <edge id=":10272_0" function="internal">
        <lane id=":10272_0_0" index="0" speed="3.65" length="4.67" shape="9968.85,2400.32 9967.67,2401.15 9966.78,2401.23 9966.18,2400.56 9965.87,2399.15"/>
    </edge>
    <edge id=":1044_0" function="internal">
        <lane id=":1044_0_0" index="0" speed="6.21" length="11.52" shape="12315.29,9571.11 12318.26,9572.93 12319.38,9574.92 12318.66,9577.09 12316.10,9579.44"/>
    </edge>
    <edge id=":1044_1" function="internal">
        <lane id=":1044_1_0" index="0" speed="3.98" length="3.84" shape="12314.26,9576.81 12315.12,9576.03 12315.36,9575.31 12314.98,9574.64 12313.99,9574.04"/>
    </edge>
    <edge id=":1046_0" function="internal">
        <lane id=":1046_0_0" index="0" speed="6.69" length="9.92" shape="11384.49,10755.53 11382.12,10754.73 11380.01,10755.02 11378.15,10756.42 11376.54,10758.91"/>
    </edge>
    <edge id=":1046_1" function="internal">
        <lane id=":1046_1_0" index="0" speed="13.89" length="15.02" shape="11384.49,10755.53 11381.10,10753.92 11377.56,10752.67 11373.92,10751.74 11370.22,10751.11"/>
    </edge>
    <edge id=":1046_2" function="internal">
        <lane id=":1046_2_0" index="0" speed="8.31" length="3.71" shape="11384.49,10755.53 11381.49,10753.35"/>
    </edge>
    <edge id=":1046_3" function="internal">
        <lane id=":1046_3_0" index="0" speed="3.65" length="1.44" shape="11384.49,10755.53 11383.81,10754.26"/>
    </edge>
    <edge id=":1046_16" function="internal">
        <lane id=":1046_16_0" index="0" speed="8.31" length="10.48" shape="11381.49,10753.35 11381.31,10753.21 11379.50,10750.46 11379.05,10747.27 11379.98,10743.64"/>
    </edge>
    <edge id=":1046_17" function="internal">
        <lane id=":1046_17_0" index="0" speed="3.65" length="3.23" shape="11383.81,10754.26 11383.84,10753.36 11384.58,10752.85 11386.01,10752.72"/>
    </edge>
    <edge id=":1046_4" function="internal">
        <lane id=":1046_4_0" index="0" speed="6.87" length="9.40" shape="11382.93,10744.88 11382.33,10747.25 11382.65,10749.35 11383.88,10751.17 11386.01,10752.72"/>
    </edge>
    <edge id=":1046_5" function="internal">
        <lane id=":1046_5_0" index="0" speed="13.89" length="15.42" shape="11382.93,10744.88 11376.54,10758.91"/>
    </edge>
    <edge id=":1046_6" function="internal">
        <lane id=":1046_6_0" index="0" speed="9.24" length="4.13" shape="11382.93,10744.88 11380.96,10748.07 11380.66,10748.30"/>
    </edge>
    <edge id=":1046_7" function="internal">
        <lane id=":1046_7_0" index="0" speed="3.65" length="1.44" shape="11382.93,10744.88 11381.73,10745.68"/>
    </edge>
    <edge id=":1046_18" function="internal">
        <lane id=":1046_18_0" index="0" speed="9.24" length="11.22" shape="11380.66,10748.30 11378.19,10750.18 11374.60,10751.19 11370.22,10751.11"/>
    </edge>
    <edge id=":1046_19" function="internal">
        <lane id=":1046_19_0" index="0" speed="3.65" length="3.23" shape="11381.73,10745.68 11380.84,10745.74 11380.25,10745.06 11379.98,10743.64"/>
    </edge>
    <edge id=":1046_8" function="internal">
        <lane id=":1046_8_0" index="0" speed="7.95" length="11.14" shape="11370.63,10747.93 11373.90,10748.02 11376.55,10747.33 11378.57,10745.87 11379.98,10743.64"/>
    </edge>
    <edge id=":1046_9" function="internal">
        <lane id=":1046_9_0" index="0" speed="13.89" length="16.18" shape="11370.63,10747.93 11374.51,10748.62 11378.53,10749.68 11382.45,10751.06 11386.01,10752.72"/>
    </edge>
    <edge id=":1046_10" function="internal">
        <lane id=":1046_10_0" index="0" speed="7.55" length="4.87" shape="11370.63,10747.93 11374.97,10749.14 11375.24,10749.39"/>
    </edge>
    <edge id=":1046_11" function="internal">
        <lane id=":1046_11_0" index="0" speed="3.65" length="1.44" shape="11370.63,10747.93 11371.72,10748.88"/>
    </edge>
    <edge id=":1046_20" function="internal">
        <lane id=":1046_20_0" index="0" speed="7.55" length="10.72" shape="11375.24,10749.39 11377.40,10751.37 11377.92,10754.63 11376.54,10758.91"/>
    </edge>
    <edge id=":1046_21" function="internal">
        <lane id=":1046_21_0" index="0" speed="3.65" length="3.23" shape="11371.72,10748.88 11372.01,10749.73 11371.51,10750.47 11370.22,10751.11"/>
    </edge>
    <edge id=":1046_12" function="internal">
        <lane id=":1046_12_0" index="0" speed="5.92" length="9.10" shape="11373.67,10757.51 11374.47,10755.01 11374.16,10753.11 11372.74,10751.81 11370.22,10751.11"/>
    </edge>
    <edge id=":1046_13" function="internal">
        <lane id=":1046_13_0" index="0" speed="13.89" length="15.24" shape="11373.67,10757.51 11379.98,10743.64"/>
    </edge>
    <edge id=":1046_14" function="internal">
        <lane id=":1046_14_0" index="0" speed="8.14" length="4.44" shape="11373.67,10757.51 11376.09,10753.80"/>
    </edge>
    <edge id=":1046_15" function="internal">
        <lane id=":1046_15_0" index="0" speed="3.65" length="1.44" shape="11373.67,10757.51 11374.91,10756.78"/>
    </edge>
    <edge id=":1046_22" function="internal">
        <lane id=":1046_22_0" index="0" speed="8.14" length="10.81" shape="11376.09,10753.80 11378.96,10751.76 11382.27,10751.40 11386.01,10752.72"/>
    </edge>
    <edge id=":1046_23" function="internal">
        <lane id=":1046_23_0" index="0" speed="3.65" length="3.23" shape="11374.91,10756.78 11375.80,10756.77 11376.35,10757.48 11376.54,10758.91"/>
    </edge>
    <edge id=":1048_0" function="internal">
        <lane id=":1048_0_0" index="0" speed="4.40" length="1.05" shape="11477.27,10008.84 11476.97,10008.83 11476.75,10008.86 11476.55,10008.95 11476.29,10009.11"/>
    </edge>
    <edge id=":1048_1" function="internal">
        <lane id=":1048_1_0" index="0" speed="7.03" length="3.14" shape="11474.51,10006.45 11475.29,10005.96 11475.89,10005.70 11476.53,10005.62 11477.45,10005.65"/>
    </edge>
    <edge id=":1053_0" function="internal">
        <lane id=":1053_0_0" index="0" speed="8.47" length="9.96" shape="8059.01,7513.27 8057.58,7511.42 8055.68,7510.12 8053.31,7509.36 8050.48,7509.15"/>
    </edge>
    <edge id=":1053_1" function="internal">
        <lane id=":1053_1_0" index="0" speed="13.89" length="13.47" shape="8059.01,7513.27 8057.49,7510.12 8056.54,7507.05 8056.05,7503.86 8055.90,7500.34"/>
    </edge>
    <edge id=":1053_2" function="internal">
        <lane id=":1053_2_0" index="0" speed="3.65" length="1.44" shape="8059.01,7513.27 8059.12,7511.83"/>
    </edge>
    <edge id=":1053_9" function="internal">
        <lane id=":1053_9_0" index="0" speed="3.65" length="3.23" shape="8059.12,7511.83 8059.61,7511.09 8060.51,7511.04 8061.80,7511.69"/>
    </edge>
    <edge id=":1053_3" function="internal">
        <lane id=":1053_3_0" index="0" speed="13.89" length="11.86" shape="8059.10,7500.33 8059.18,7503.60 8059.53,7506.25 8060.33,7508.78 8061.80,7511.69"/>
    </edge>
    <edge id=":1053_4" function="internal">
        <lane id=":1053_4_0" index="0" speed="8.00" length="3.72" shape="8059.10,7500.33 8058.59,7504.02"/>
    </edge>
    <edge id=":1053_5" function="internal">
        <lane id=":1053_5_0" index="0" speed="3.65" length="1.44" shape="8059.10,7500.33 8058.30,7501.53"/>
    </edge>
    <edge id=":1053_10" function="internal">
        <lane id=":1053_10_0" index="0" speed="8.00" length="10.29" shape="8058.59,7504.02 8058.57,7504.12 8056.96,7506.86 8054.26,7508.53 8050.48,7509.15"/>
    </edge>
    <edge id=":1053_11" function="internal">
        <lane id=":1053_11_0" index="0" speed="3.65" length="3.23" shape="8058.30,7501.53 8057.51,7501.93 8056.70,7501.54 8055.90,7500.34"/>
    </edge>
    <edge id=":1053_6" function="internal">
        <lane id=":1053_6_0" index="0" speed="6.51" length="8.91" shape="8050.42,7505.95 8052.82,7505.56 8054.54,7504.49 8055.56,7502.75 8055.90,7500.34"/>
    </edge>
    <edge id=":1053_7" function="internal">
        <lane id=":1053_7_0" index="0" speed="9.75" length="13.41" shape="8050.42,7505.95 8054.14,7506.25 8057.27,7507.30 8059.83,7509.12 8061.80,7511.69"/>
    </edge>
    <edge id=":1053_8" function="internal">
        <lane id=":1053_8_0" index="0" speed="3.65" length="1.44" shape="8050.42,7505.95 8051.63,7506.73"/>
    </edge>
    <edge id=":1053_12" function="internal">
        <lane id=":1053_12_0" index="0" speed="3.65" length="3.23" shape="8051.63,7506.73 8052.05,7507.52 8051.67,7508.33 8050.48,7509.15"/>
    </edge>
    <edge id=":10713_0" function="internal">
        <lane id=":10713_0_0" index="0" speed="6.08" length="7.65" shape="13267.09,6499.17 13266.60,6497.13 13266.87,6495.42 13267.91,6494.03 13269.71,6492.96"/>
    </edge>
    <edge id=":10713_1" function="internal">
        <lane id=":10713_1_0" index="0" speed="3.91" length="2.55" shape="13270.93,6495.92 13270.33,6496.27 13269.99,6496.74 13269.90,6497.31 13270.06,6497.98"/>
    </edge>
    <edge id=":10715_0" function="internal">
        <lane id=":10715_0_0" index="0" speed="13.89" length="14.26" shape="15763.76,5088.52 15760.42,5087.07 15757.04,5086.12 15753.57,5085.75 15749.96,5086.01"/>
    </edge>
    <edge id=":10715_1" function="internal">
        <lane id=":10715_1_0" index="0" speed="12.72" length="18.61" shape="15763.76,5088.52 15760.02,5086.04 15757.06,5082.76 15754.87,5078.68 15753.46,5073.80"/>
    </edge>
    <edge id=":10715_2" function="internal">
        <lane id=":10715_2_0" index="0" speed="7.79" length="5.73" shape="15763.76,5088.52 15760.13,5085.88 15759.63,5084.74"/>
    </edge>
    <edge id=":10715_3" function="internal">
        <lane id=":10715_3_0" index="0" speed="3.65" length="1.44" shape="15763.76,5088.52 15763.05,5087.26"/>
    </edge>
    <edge id=":10715_16" function="internal">
        <lane id=":10715_16_0" index="0" speed="7.79" length="11.01" shape="15759.63,5084.74 15758.77,5082.77 15759.70,5079.19 15762.91,5075.16"/>
    </edge>
    <edge id=":10715_17" function="internal">
        <lane id=":10715_17_0" index="0" speed="3.65" length="3.23" shape="15763.05,5087.26 15763.05,5086.37 15763.77,5085.84 15765.20,5085.66"/>
    </edge>
    <edge id=":10715_4" function="internal">
        <lane id=":10715_4_0" index="0" speed="6.23" length="10.23" shape="15765.15,5077.44 15763.09,5079.98 15762.41,5082.20 15763.11,5084.09 15765.20,5085.66"/>
    </edge>
    <edge id=":10715_5" function="internal">
        <lane id=":10715_5_0" index="0" speed="13.89" length="17.64" shape="15765.15,5077.44 15761.97,5080.15 15758.07,5082.74 15753.92,5084.83 15749.96,5086.01"/>
    </edge>
    <edge id=":10715_6" function="internal">
        <lane id=":10715_6_0" index="0" speed="7.38" length="5.92" shape="15765.15,5077.44 15760.96,5080.61 15760.30,5080.70"/>
    </edge>
    <edge id=":10715_7" function="internal">
        <lane id=":10715_7_0" index="0" speed="3.65" length="1.44" shape="15765.15,5077.44 15763.74,5077.71"/>
    </edge>
    <edge id=":10715_18" function="internal">
        <lane id=":10715_18_0" index="0" speed="7.38" length="11.35" shape="15760.30,5080.70 15757.61,5081.06 15755.12,5078.79 15753.46,5073.80"/>
    </edge>
    <edge id=":10715_19" function="internal">
        <lane id=":10715_19_0" index="0" speed="3.65" length="3.23" shape="15763.74,5077.71 15762.89,5077.42 15762.61,5076.57 15762.91,5075.16"/>
    </edge>
    <edge id=":10715_8" function="internal">
        <lane id=":10715_8_0" index="0" speed="5.61" length="9.31" shape="15756.61,5073.19 15757.50,5075.89 15758.84,5077.11 15760.65,5076.87 15762.91,5075.16"/>
    </edge>
    <edge id=":10715_9" function="internal">
        <lane id=":10715_9_0" index="0" speed="11.70" length="15.69" shape="15756.61,5073.19 15757.80,5077.35 15759.63,5080.81 15762.09,5083.59 15765.20,5085.66"/>
    </edge>
    <edge id=":10715_10" function="internal">
        <lane id=":10715_10_0" index="0" speed="8.49" length="3.54" shape="15756.61,5073.19 15756.89,5076.72"/>
    </edge>
    <edge id=":10715_11" function="internal">
        <lane id=":10715_11_0" index="0" speed="3.65" length="1.44" shape="15756.61,5073.19 15756.05,5074.52"/>
    </edge>
    <edge id=":10715_20" function="internal">
        <lane id=":10715_20_0" index="0" speed="8.49" length="12.95" shape="15756.89,5076.72 15757.02,5078.27 15756.05,5082.10 15753.70,5084.68 15749.96,5086.01"/>
    </edge>
    <edge id=":10715_21" function="internal">
        <lane id=":10715_21_0" index="0" speed="3.65" length="3.23" shape="15756.05,5074.52 15755.34,5075.07 15754.48,5074.83 15753.46,5073.80"/>
    </edge>
    <edge id=":10715_12" function="internal">
        <lane id=":10715_12_0" index="0" speed="7.11" length="11.24" shape="15749.46,5082.85 15751.80,5081.95 15753.25,5080.14 15753.80,5077.42 15753.46,5073.80"/>
    </edge>
    <edge id=":10715_13" function="internal">
        <lane id=":10715_13_0" index="0" speed="13.89" length="15.71" shape="15749.46,5082.85 15753.14,5081.81 15756.70,5080.02 15760.00,5077.72 15762.91,5075.16"/>
    </edge>
    <edge id=":10715_14" function="internal">
        <lane id=":10715_14_0" index="0" speed="13.89" length="16.21" shape="15749.46,5082.85 15753.37,5082.64 15757.51,5083.12 15761.55,5084.16 15765.20,5085.66"/>
    </edge>
    <edge id=":10715_15" function="internal">
        <lane id=":10715_15_0" index="0" speed="3.65" length="1.31" shape="15749.46,5082.85 15750.65,5083.40"/>
    </edge>
    <edge id=":10715_22" function="internal">
        <lane id=":10715_22_0" index="0" speed="3.65" length="3.36" shape="15750.65,5083.40 15750.77,5083.45 15751.29,5084.18 15751.02,5085.03 15749.96,5086.01"/>
    </edge>
    <edge id=":10725_0" function="internal">
        <lane id=":10725_0_0" index="0" speed="6.07" length="7.92" shape="14904.09,5832.66 14901.99,5833.24 14900.23,5832.99 14898.80,5831.93 14897.72,5830.04"/>
    </edge>
    <edge id=":10725_1" function="internal">
        <lane id=":10725_1_0" index="0" speed="3.90" length="2.64" shape="14900.69,5828.85 14901.05,5829.48 14901.53,5829.84 14902.11,5829.92 14902.81,5829.73"/>
    </edge>
    <edge id=":10729_0" function="internal">
        <lane id=":10729_0_0" index="0" speed="9.01" length="1.93" shape="14136.61,4962.04 14136.12,4961.76 14135.79,4961.53 14135.52,4961.25 14135.16,4960.80"/>
    </edge>
    <edge id=":10729_1" function="internal">
        <lane id=":10729_1_0" index="0" speed="13.89" length="0.64" shape="14137.68,4958.83 14137.80,4958.98 14137.89,4959.07 14138.00,4959.15 14138.17,4959.24"/>
    </edge>
    <edge id=":10760_0" function="internal">
        <lane id=":10760_0_0" index="0" speed="13.89" length="17.12" shape="5827.61,5860.12 5825.36,5856.71 5823.41,5852.67 5821.97,5848.42 5821.27,5844.42"/>
    </edge>
    <edge id=":10760_1" function="internal">
        <lane id=":10760_1_0" index="0" speed="7.48" length="5.47" shape="5827.61,5860.12 5825.25,5856.07 5825.22,5855.29"/>
    </edge>
    <edge id=":10760_2" function="internal">
        <lane id=":10760_2_0" index="0" speed="3.65" length="1.44" shape="5827.61,5860.12 5827.50,5858.68"/>
    </edge>
    <edge id=":10760_9" function="internal">
        <lane id=":10760_9_0" index="0" speed="7.48" length="10.54" shape="5825.22,5855.29 5825.11,5852.76 5827.19,5850.17 5831.50,5848.32"/>
    </edge>
    <edge id=":10760_10" function="internal">
        <lane id=":10760_10_0" index="0" speed="3.65" length="3.23" shape="5827.50,5858.68 5827.88,5857.87 5828.75,5857.69 5830.12,5858.14"/>
    </edge>
    <edge id=":10760_3" function="internal">
        <lane id=":10760_3_0" index="0" speed="5.82" length="9.14" shape="5832.34,5851.41 5829.89,5852.46 5828.70,5853.94 5828.78,5855.83 5830.12,5858.14"/>
    </edge>
    <edge id=":10760_4" function="internal">
        <lane id=":10760_4_0" index="0" speed="7.85" length="15.71" shape="5832.34,5851.41 5827.75,5852.04 5824.38,5851.09 5822.22,5848.54 5821.27,5844.42"/>
    </edge>
    <edge id=":10760_5" function="internal">
        <lane id=":10760_5_0" index="0" speed="3.65" length="1.44" shape="5832.34,5851.41 5830.97,5850.95"/>
    </edge>
    <edge id=":10760_11" function="internal">
        <lane id=":10760_11_0" index="0" speed="3.65" length="3.23" shape="5830.97,5850.95 5830.38,5850.29 5830.55,5849.41 5831.50,5848.32"/>
    </edge>
    <edge id=":10760_6" function="internal">
        <lane id=":10760_6_0" index="0" speed="6.33" length="9.77" shape="5824.46,5844.20 5825.06,5846.68 5826.43,5848.20 5828.57,5848.74 5831.50,5848.32"/>
    </edge>
    <edge id=":10760_7" function="internal">
        <lane id=":10760_7_0" index="0" speed="13.89" length="15.25" shape="5824.46,5844.20 5825.06,5847.93 5826.26,5851.57 5827.98,5855.01 5830.12,5858.14"/>
    </edge>
    <edge id=":10760_8" function="internal">
        <lane id=":10760_8_0" index="0" speed="3.65" length="1.33" shape="5824.46,5844.20 5823.80,5845.36"/>
    </edge>
    <edge id=":10760_12" function="internal">
        <lane id=":10760_12_0" index="0" speed="3.65" length="3.34" shape="5823.80,5845.36 5823.75,5845.45 5822.98,5845.90 5822.15,5845.56 5821.27,5844.42"/>
    </edge>
    <edge id=":10783_0" function="internal">
        <lane id=":10783_0_0" index="0" speed="7.84" length="11.38" shape="2952.28,9068.97 2950.34,9067.45 2947.95,9066.91 2945.10,9067.34 2941.81,9068.75"/>
    </edge>
    <edge id=":10783_1" function="internal">
        <lane id=":10783_1_0" index="0" speed="13.89" length="15.34" shape="2952.28,9068.97 2949.67,9066.21 2946.79,9063.64 2943.74,9061.25 2940.63,9059.06"/>
    </edge>
    <edge id=":10783_2" function="internal">
        <lane id=":10783_2_0" index="0" speed="12.43" length="3.63" shape="2952.28,9068.97 2950.29,9065.94"/>
    </edge>
    <edge id=":10783_3" function="internal">
        <lane id=":10783_3_0" index="0" speed="3.65" length="1.44" shape="2952.28,9068.97 2952.11,9067.54"/>
    </edge>
    <edge id=":10783_16" function="internal">
        <lane id=":10783_16_0" index="0" speed="12.43" length="12.48" shape="2950.29,9065.94 2949.07,9062.38 2948.63,9058.30 2948.95,9053.70"/>
    </edge>
    <edge id=":10783_17" function="internal">
        <lane id=":10783_17_0" index="0" speed="3.65" length="3.23" shape="2952.11,9067.54 2952.46,9066.72 2953.33,9066.50 2954.72,9066.89"/>
    </edge>
    <edge id=":10783_4" function="internal">
        <lane id=":10783_4_0" index="0" speed="11.36" length="13.39" shape="2952.11,9054.16 2951.82,9058.06 2952.16,9061.48 2953.13,9064.43 2954.72,9066.89"/>
    </edge>
    <edge id=":10783_5" function="internal">
        <lane id=":10783_5_0" index="0" speed="12.52" length="18.54" shape="2952.11,9054.16 2950.94,9058.74 2948.83,9062.70 2945.79,9066.04 2941.81,9068.75"/>
    </edge>
    <edge id=":10783_6" function="internal">
        <lane id=":10783_6_0" index="0" speed="7.47" length="6.43" shape="2952.11,9054.16 2950.77,9058.79 2949.63,9059.92"/>
    </edge>
    <edge id=":10783_7" function="internal">
        <lane id=":10783_7_0" index="0" speed="3.65" length="1.44" shape="2952.11,9054.16 2951.15,9055.23"/>
    </edge>
    <edge id=":10783_18" function="internal">
        <lane id=":10783_18_0" index="0" speed="7.47" length="10.01" shape="2949.63,9059.92 2948.41,9061.15 2945.03,9061.24 2940.63,9059.06"/>
    </edge>
    <edge id=":10783_19" function="internal">
        <lane id=":10783_19_0" index="0" speed="3.65" length="3.23" shape="2951.15,9055.23 2950.30,9055.51 2949.57,9055.00 2948.95,9053.70"/>
    </edge>
    <edge id=":10783_8" function="internal">
        <lane id=":10783_8_0" index="0" speed="5.79" length="9.30" shape="2942.43,9056.41 2944.92,9057.65 2946.85,9057.61 2948.19,9056.30 2948.95,9053.70"/>
    </edge>
    <edge id=":10783_9" function="internal">
        <lane id=":10783_9_0" index="0" speed="13.89" length="16.20" shape="2942.43,9056.41 2945.64,9058.69 2948.91,9061.28 2952.01,9064.05 2954.72,9066.89"/>
    </edge>
    <edge id=":10783_10" function="internal">
        <lane id=":10783_10_0" index="0" speed="7.43" length="5.06" shape="2942.43,9056.41 2946.09,9059.68 2946.14,9059.82"/>
    </edge>
    <edge id=":10783_11" function="internal">
        <lane id=":10783_11_0" index="0" speed="3.65" length="1.44" shape="2942.43,9056.41 2942.97,9057.74"/>
    </edge>
    <edge id=":10783_20" function="internal">
        <lane id=":10783_20_0" index="0" speed="7.43" length="11.45" shape="2946.14,9059.82 2947.21,9062.83 2945.79,9065.85 2941.81,9068.75"/>
    </edge>
    <edge id=":10783_21" function="internal">
        <lane id=":10783_21_0" index="0" speed="3.65" length="3.23" shape="2942.97,9057.74 2942.86,9058.63 2942.08,9059.07 2940.63,9059.06"/>
    </edge>
    <edge id=":10783_12" function="internal">
        <lane id=":10783_12_0" index="0" speed="5.71" length="9.20" shape="2940.29,9065.93 2942.51,9064.32 2943.30,9062.64 2942.68,9060.88 2940.63,9059.06"/>
    </edge>
    <edge id=":10783_13" function="internal">
        <lane id=":10783_13_0" index="0" speed="11.50" length="15.56" shape="2940.29,9065.93 2943.63,9063.66 2946.19,9060.86 2947.96,9057.54 2948.95,9053.70"/>
    </edge>
    <edge id=":10783_14" function="internal">
        <lane id=":10783_14_0" index="0" speed="9.13" length="3.45" shape="2940.29,9065.93 2943.48,9064.61"/>
    </edge>
    <edge id=":10783_15" function="internal">
        <lane id=":10783_15_0" index="0" speed="3.65" length="1.33" shape="2940.29,9065.93 2941.62,9066.06"/>
    </edge>
    <edge id=":10783_22" function="internal">
        <lane id=":10783_22_0" index="0" speed="9.13" length="12.31" shape="2943.48,9064.61 2944.68,9064.11 2948.55,9063.66 2951.89,9064.59 2954.72,9066.89"/>
    </edge>
    <edge id=":10783_23" function="internal">
        <lane id=":10783_23_0" index="0" speed="3.65" length="3.34" shape="2941.62,9066.06 2941.73,9066.07 2942.46,9066.58 2942.49,9067.47 2941.81,9068.75"/>
    </edge>
    <edge id=":10793_0" function="internal">
        <lane id=":10793_0_0" index="0" speed="6.07" length="9.07" shape="7458.49,2785.53 7456.98,2783.44 7455.25,2782.51 7453.30,2782.74 7451.14,2784.13"/>
    </edge>
    <edge id=":10793_1" function="internal">
        <lane id=":10793_1_0" index="0" speed="13.89" length="15.31" shape="7458.49,2785.53 7451.75,2771.78"/>
    </edge>
    <edge id=":10793_2" function="internal">
        <lane id=":10793_2_0" index="0" speed="8.02" length="4.65" shape="7458.49,2785.53 7457.03,2781.53 7457.05,2781.14"/>
    </edge>
    <edge id=":10793_3" function="internal">
        <lane id=":10793_3_0" index="0" speed="3.65" length="1.44" shape="7458.49,2785.53 7458.64,2784.09"/>
    </edge>
    <edge id=":10793_16" function="internal">
        <lane id=":10793_16_0" index="0" speed="8.02" length="10.28" shape="7457.05,2781.14 7457.17,2778.13 7458.92,2775.35 7462.27,2773.18"/>
    </edge>
    <edge id=":10793_17" function="internal">
        <lane id=":10793_17_0" index="0" speed="3.65" length="3.23" shape="7458.64,2784.09 7459.16,2783.37 7460.05,2783.35 7461.32,2784.04"/>
    </edge>
    <edge id=":10793_4" function="internal">
        <lane id=":10793_4_0" index="0" speed="6.54" length="9.54" shape="7463.58,2776.10 7461.49,2777.47 7460.42,2779.25 7460.36,2781.44 7461.32,2784.04"/>
    </edge>
    <edge id=":10793_5" function="internal">
        <lane id=":10793_5_0" index="0" speed="13.89" length="14.86" shape="7463.58,2776.10 7460.24,2777.76 7457.07,2779.66 7454.04,2781.78 7451.14,2784.13"/>
    </edge>