<?xml version="1.0" encoding="UTF-8"?>

<!-- generated on 2025-02-14 14:56:00 by Eclipse SUMO netgenerate Version 1.22.0
<netgenerateConfiguration xmlns:xsi="http://www.w3.org/2001/XMLSchema-instance" xsi:noNamespaceSchemaLocation="http://sumo.dlr.de/xsd/netgenerateConfiguration.xsd">

    <random_network>
        <rand value="true"/>
        <rand.iterations value="1011"/>
        <rand.max-distance value="2823.82979033555"/>
        <rand.min-distance value="1987.110356385077"/>
        <rand.min-angle value="42.91448615700005"/>
        <rand.neighbor-dist1 value="1.0"/>
        <rand.neighbor-dist2 value="10.0"/>
        <rand.neighbor-dist3 value="5.0"/>
        <rand.neighbor-dist4 value="5.0"/>
        <rand.neighbor-dist5 value="0.0"/>
        <rand.neighbor-dist6 value="0.0"/>
    </random_network>

    <output>
        <output-file value="configs/rand-configs/rand0.net.xml"/>
    </output>

</netgenerateConfiguration>
-->

<net version="1.20" junctionCornerDetail="5" limitTurnSpeed="5.50" xmlns:xsi="http://www.w3.org/2001/XMLSchema-instance" xsi:noNamespaceSchemaLocation="http://sumo.dlr.de/xsd/net_file.xsd">

    <location netOffset="52620.68,47611.57" convBoundary="0.00,0.00,98399.26,102323.84" origBoundary="-52620.68,-47611.57,45778.58,54712.27" projParameter="!"/>

    <edge id=":1_0" function="internal">
        <lane id=":1_0_0" index="0" speed="5.98" length="9.08" shape="52619.21,47619.87 52618.81,47617.30 52617.68,47615.72 52615.83,47615.14 52613.26,47615.55"/>
    </edge>
    <edge id=":1_1" function="internal">
        <lane id=":1_1_0" index="0" speed="13.89" length="14.86" shape="52619.21,47619.87 52619.08,47616.14 52618.76,47612.45 52618.24,47608.79 52617.49,47605.14"/>
    </edge>
    <edge id=":1_2" function="internal">
        <lane id=":1_2_0" index="0" speed="8.09" length="4.36" shape="52619.21,47619.87 52619.71,47615.53"/>
    </edge>
    <edge id=":1_3" function="internal">
        <lane id=":1_3_0" index="0" speed="3.65" length="1.44" shape="52619.21,47619.87 52619.99,47618.66"/>
    </edge>
    <edge id=":1_16" function="internal">
        <lane id=":1_16_0" index="0" speed="8.09" length="10.76" shape="52619.71,47615.53 52621.36,47612.49 52624.16,47610.73 52628.12,47610.25"/>
    </edge>
    <edge id=":1_17" function="internal">
        <lane id=":1_17_0" index="0" speed="3.65" length="3.23" shape="52619.99,47618.66 52620.79,47618.24 52621.59,47618.63 52622.41,47619.82"/>
    </edge>
    <edge id=":1_4" function="internal">
        <lane id=":1_4_0" index="0" speed="6.62" length="9.76" shape="52627.99,47613.45 52625.51,47613.77 52623.76,47614.94 52622.72,47616.95 52622.41,47619.82"/>
    </edge>
    <edge id=":1_5" function="internal">
        <lane id=":1_5_0" index="0" speed="13.89" length="14.95" shape="52627.99,47613.45 52624.26,47613.49 52620.54,47613.88 52616.87,47614.57 52613.26,47615.55"/>
    </edge>
    <edge id=":1_6" function="internal">
        <lane id=":1_6_0" index="0" speed="9.03" length="14.51" shape="52627.99,47613.45 52624.12,47612.81 52621.08,47611.21 52618.87,47608.66 52617.49,47605.14"/>
    </edge>
    <edge id=":1_7" function="internal">
        <lane id=":1_7_0" index="0" speed="3.65" length="4.67" shape="52627.99,47613.45 52626.83,47612.61 52626.46,47611.79 52626.89,47611.01 52628.12,47610.25"/>
    </edge>
    <edge id=":1_8" function="internal">
        <lane id=":1_8_0" index="0" speed="7.70" length="10.32" shape="52620.61,47604.39 52621.58,47606.87 52623.16,47608.67 52625.34,47609.80 52628.12,47610.25"/>
    </edge>
    <edge id=":1_9" function="internal">
        <lane id=":1_9_0" index="0" speed="13.89" length="15.56" shape="52620.61,47604.39 52621.37,47608.15 52621.92,47612.06 52622.26,47615.98 52622.41,47619.82"/>
    </edge>
    <edge id=":1_10" function="internal">
        <lane id=":1_10_0" index="0" speed="8.41" length="4.08" shape="52620.61,47604.39 52620.89,47608.19 52620.80,47608.45"/>
    </edge>
    <edge id=":1_11" function="internal">
        <lane id=":1_11_0" index="0" speed="3.65" length="1.44" shape="52620.61,47604.39 52620.11,47605.75"/>
    </edge>
    <edge id=":1_18" function="internal">
        <lane id=":1_18_0" index="0" speed="8.41" length="10.92" shape="52620.80,47608.45 52619.76,47611.32 52617.22,47613.77 52613.26,47615.55"/>
    </edge>
    <edge id=":1_19" function="internal">
        <lane id=":1_19_0" index="0" speed="3.65" length="3.23" shape="52620.11,47605.75 52619.42,47606.32 52618.55,47606.12 52617.49,47605.14"/>
    </edge>
    <edge id=":1_12" function="internal">
        <lane id=":1_12_0" index="0" speed="7.00" length="10.09" shape="52612.31,47612.50 52615.06,47611.28 52616.84,47609.65 52617.65,47607.61 52617.49,47605.14"/>
    </edge>
    <edge id=":1_13" function="internal">
        <lane id=":1_13_0" index="0" speed="13.89" length="16.03" shape="52612.31,47612.50 52616.09,47611.49 52620.13,47610.75 52624.21,47610.32 52628.12,47610.25"/>
    </edge>
    <edge id=":1_14" function="internal">
        <lane id=":1_14_0" index="0" speed="7.59" length="15.41" shape="52612.31,47612.50 52616.67,47611.80 52619.81,47612.78 52621.72,47615.46 52622.41,47619.82"/>
    </edge>
    <edge id=":1_15" function="internal">
        <lane id=":1_15_0" index="0" speed="3.65" length="4.67" shape="52612.31,47612.50 52613.69,47612.90 52614.31,47613.55 52614.17,47614.43 52613.26,47615.55"/>
    </edge>
    <edge id=":10_0" function="internal">
        <lane id=":10_0_0" index="0" speed="8.73" length="8.42" shape="50356.34,48315.90 50354.15,48316.79 50352.39,48317.96 50351.04,48319.41 50350.12,48321.14"/>
    </edge>
    <edge id=":10_1" function="internal">
        <lane id=":10_1_0" index="0" speed="8.07" length="12.09" shape="50356.34,48315.90 50353.16,48316.44 50350.39,48315.94 50348.03,48314.40 50346.07,48311.83"/>
    </edge>
    <edge id=":10_2" function="internal">
        <lane id=":10_2_0" index="0" speed="3.65" length="4.67" shape="50356.34,48315.90 50354.96,48315.49 50354.34,48314.85 50354.49,48313.97 50355.39,48312.85"/>
    </edge>
    <edge id=":10_3" function="internal">
        <lane id=":10_3_0" index="0" speed="6.56" length="7.69" shape="50348.86,48310.25 50350.10,48311.89 50351.60,48312.87 50353.37,48313.19 50355.39,48312.85"/>
    </edge>
    <edge id=":10_4" function="internal">
        <lane id=":10_4_0" index="0" speed="10.27" length="11.32" shape="50348.86,48310.25 50350.15,48313.07 50350.79,48315.83 50350.78,48318.52 50350.12,48321.14"/>
    </edge>
    <edge id=":10_5" function="internal">
        <lane id=":10_5_0" index="0" speed="3.65" length="1.44" shape="50348.86,48310.25 50348.75,48311.69"/>
    </edge>
    <edge id=":10_9" function="internal">
        <lane id=":10_9_0" index="0" speed="3.65" length="3.23" shape="50348.75,48311.69 50348.25,48312.43 50347.36,48312.48 50346.07,48311.83"/>
    </edge>
    <edge id=":10_6" function="internal">
        <lane id=":10_6_0" index="0" speed="8.97" length="8.51" shape="50347.13,48320.00 50347.60,48318.08 50347.58,48316.07 50347.07,48313.99 50346.07,48311.83"/>
    </edge>
    <edge id=":10_7" function="internal">
        <lane id=":10_7_0" index="0" speed="10.05" length="2.71" shape="50347.13,48320.00 50348.39,48317.60"/>
    </edge>
    <edge id=":10_8" function="internal">
        <lane id=":10_8_0" index="0" speed="3.65" length="1.32" shape="50347.13,48320.00 50348.21,48319.23"/>
    </edge>
    <edge id=":10_10" function="internal">
        <lane id=":10_10_0" index="0" speed="10.05" length="8.61" shape="50348.39,48317.60 50350.18,48315.61 50352.52,48314.03 50355.39,48312.85"/>
    </edge>
    <edge id=":10_11" function="internal">
        <lane id=":10_11_0" index="0" speed="3.65" length="3.35" shape="50348.21,48319.23 50348.30,48319.16 50349.19,48319.07 50349.80,48319.73 50350.12,48321.14"/>
    </edge>
    <edge id=":10072_0" function="internal">
        <lane id=":10072_0_0" index="0" speed="8.16" length="12.11" shape="77008.99,58001.62 77006.46,58000.78 77003.83,58001.05 77001.12,58002.44 76998.33,58004.94"/>
    </edge>
    <edge id=":10072_1" function="internal">
        <lane id=":10072_1_0" index="0" speed="13.89" length="15.98" shape="77008.99,58001.62 77005.49,57999.91 77001.67,57998.45 76997.76,57997.26 76993.96,57996.33"/>
    </edge>
    <edge id=":10072_2" function="internal">
        <lane id=":10072_2_0" index="0" speed="8.14" length="3.58" shape="77008.99,58001.62 77006.15,57999.45"/>
    </edge>
    <edge id=":10072_3" function="internal">
        <lane id=":10072_3_0" index="0" speed="3.65" length="1.44" shape="77008.99,58001.62 77008.34,58000.33"/>
    </edge>
    <edge id=":10072_16" function="internal">
        <lane id=":10072_16_0" index="0" speed="8.14" length="10.34" shape="77006.15,57999.45 77005.99,57999.33 77004.35,57996.60 77004.09,57993.43 77005.20,57989.81"/>
    </edge>
    <edge id=":10072_17" function="internal">
        <lane id=":10072_17_0" index="0" speed="3.65" length="3.23" shape="77008.34,58000.33 77008.38,57999.44 77009.12,57998.94 77010.56,57998.82"/>
    </edge>
    <edge id=":10072_4" function="internal">
        <lane id=":10072_4_0" index="0" speed="6.67" length="9.03" shape="77008.10,57991.17 77007.38,57993.51 77007.55,57995.57 77008.61,57997.34 77010.56,57998.82"/>
    </edge>
    <edge id=":10072_5" function="internal">
        <lane id=":10072_5_0" index="0" speed="13.89" length="16.93" shape="77008.10,57991.17 77006.15,57994.72 77003.69,57998.38 77000.99,58001.88 76998.33,58004.94"/>
    </edge>
    <edge id=":10072_6" function="internal">
        <lane id=":10072_6_0" index="0" speed="9.35" length="16.38" shape="77008.10,57991.17 77005.90,57994.30 77002.81,57996.20 76998.83,57996.88 76993.96,57996.33"/>
    </edge>
    <edge id=":10072_7" function="internal">
        <lane id=":10072_7_0" index="0" speed="3.65" length="4.67" shape="77008.10,57991.17 77006.86,57991.92 77005.97,57991.94 77005.42,57991.24 77005.20,57989.81"/>
    </edge>
    <edge id=":10072_8" function="internal">
        <lane id=":10072_8_0" index="0" speed="8.09" length="12.04" shape="76994.64,57993.20 76998.36,57993.66 77001.35,57993.24 77003.63,57991.96 77005.20,57989.81"/>
    </edge>
    <edge id=":10072_9" function="internal">
        <lane id=":10072_9_0" index="0" speed="13.89" length="16.93" shape="76994.64,57993.20 76998.58,57994.19 77002.80,57995.50 77006.92,57997.06 77010.56,57998.82"/>
    </edge>
    <edge id=":10072_10" function="internal">
        <lane id=":10072_10_0" index="0" speed="7.40" length="5.28" shape="76994.64,57993.20 76999.42,57994.93 76999.55,57995.08"/>
    </edge>
    <edge id=":10072_11" function="internal">
        <lane id=":10072_11_0" index="0" speed="3.65" length="1.44" shape="76994.64,57993.20 76995.65,57994.24"/>
    </edge>
    <edge id=":10072_18" function="internal">
        <lane id=":10072_18_0" index="0" speed="7.40" length="11.59" shape="76999.55,57995.08 77001.63,57997.46 77001.26,58000.80 76998.33,58004.94"/>
    </edge>
    <edge id=":10072_19" function="internal">
        <lane id=":10072_19_0" index="0" speed="3.65" length="3.23" shape="76995.65,57994.24 76995.87,57995.11 76995.30,57995.80 76993.96,57996.33"/>
    </edge>
    <edge id=":10072_12" function="internal">
        <lane id=":10072_12_0" index="0" speed="5.66" length="9.25" shape="76995.98,58002.76 76997.59,58000.49 76997.79,57998.66 76996.58,57997.27 76993.96,57996.33"/>
    </edge>
    <edge id=":10072_13" function="internal">
        <lane id=":10072_13_0" index="0" speed="13.89" length="15.95" shape="76995.98,58002.76 76998.56,57999.83 77001.07,57996.61 77003.34,57993.23 77005.20,57989.81"/>
    </edge>
    <edge id=":10072_14" function="internal">
        <lane id=":10072_14_0" index="0" speed="9.41" length="16.41" shape="76995.98,58002.76 76999.66,57999.53 77003.32,57997.80 77006.95,57997.56 77010.56,57998.82"/>
    </edge>
    <edge id=":10072_15" function="internal">
        <lane id=":10072_15_0" index="0" speed="3.65" length="4.67" shape="76995.98,58002.76 76997.38,58002.43 76998.24,58002.68 76998.56,58003.52 76998.33,58004.94"/>
    </edge>
    <edge id=":10084_0" function="internal">
        <lane id=":10084_0_0" index="0" speed="6.34" length="12.90" shape="74410.51,57438.42 74409.18,57434.64 74409.62,57432.24 74411.84,57431.23 74415.83,57431.60"/>
    </edge>
    <edge id=":10084_1" function="internal">
        <lane id=":10084_1_0" index="0" speed="4.04" length="4.30" shape="74415.15,57434.72 74413.82,57434.60 74413.08,57434.94 74412.93,57435.74 74413.38,57437.00"/>
    </edge>
    <edge id=":10096_0" function="internal">
        <lane id=":10096_0_0" index="0" speed="6.08" length="8.88" shape="79171.00,53194.26 79168.79,53195.44 79166.86,53195.52 79165.20,53194.52 79163.83,53192.43"/>
    </edge>
    <edge id=":10096_1" function="internal">
        <lane id=":10096_1_0" index="0" speed="3.90" length="2.96" shape="79166.72,53191.07 79167.18,53191.77 79167.73,53192.10 79168.38,53192.07 79169.11,53191.68"/>
    </edge>
    <edge id=":10106_0" function="internal">
        <lane id=":10106_0_0" index="0" speed="3.65" length="4.67" shape="77984.95,48673.96 77985.59,48672.67 77986.34,48672.18 77987.18,48672.48 77988.12,48673.58"/>
    </edge>
    <edge id=":10122_0" function="internal">
        <lane id=":10122_0_0" index="0" speed="7.81" length="2.39" shape="80625.19,50343.45 80624.75,50344.01 80624.41,50344.35 80623.99,50344.61 80623.35,50344.91"/>
    </edge>
    <edge id=":10122_1" function="internal">
        <lane id=":10122_1_0" index="0" speed="13.89" length="0.80" shape="80622.04,50342.00 80622.25,50341.90 80622.39,50341.81 80622.50,50341.69 80622.65,50341.51"/>
    </edge>
    <edge id=":1013_0" function="internal">
        <lane id=":1013_0_0" index="0" speed="13.89" length="16.73" shape="46453.80,35335.17 46454.42,35339.15 46454.59,35343.49 46454.30,35347.83 46453.52,35351.76"/>
    </edge>
    <edge id=":1013_1" function="internal">
        <lane id=":1013_1_0" index="0" speed="7.53" length="5.16" shape="46453.80,35335.17 46454.18,35339.71 46453.94,35340.27"/>
    </edge>
    <edge id=":1013_2" function="internal">
        <lane id=":1013_2_0" index="0" speed="3.65" length="1.44" shape="46453.80,35335.17 46453.28,35336.52"/>
    </edge>
    <edge id=":1013_9" function="internal">
        <lane id=":1013_9_0" index="0" speed="7.53" length="10.54" shape="46453.94,35340.27 46452.91,35342.76 46450.01,35344.33 46445.46,35344.43"/>
    </edge>
    <edge id=":1013_10" function="internal">
        <lane id=":1013_10_0" index="0" speed="3.65" length="3.23" shape="46453.28,35336.52 46452.59,35337.09 46451.72,35336.88 46450.68,35335.88"/>
    </edge>
    <edge id=":1013_3" function="internal">
        <lane id=":1013_3_0" index="0" speed="5.89" length="9.11" shape="46445.84,35341.25 46448.48,35341.20 46450.16,35340.28 46450.90,35338.51 46450.68,35335.88"/>
    </edge>
    <edge id=":1013_4" function="internal">
        <lane id=":1013_4_0" index="0" speed="7.89" length="15.45" shape="46445.84,35341.25 46450.20,35342.37 46452.94,35344.50 46454.04,35347.63 46453.52,35351.76"/>
    </edge>
    <edge id=":1013_5" function="internal">
        <lane id=":1013_5_0" index="0" speed="3.65" length="4.67" shape="46445.84,35341.25 46446.94,35342.19 46447.24,35343.03 46446.75,35343.78 46445.46,35344.43"/>
    </edge>
    <edge id=":1013_6" function="internal">
        <lane id=":1013_6_0" index="0" speed="6.37" length="9.66" shape="46450.44,35350.87 46450.74,35348.35 46450.01,35346.44 46448.25,35345.13 46445.46,35344.43"/>
    </edge>
    <edge id=":1013_7" function="internal">
        <lane id=":1013_7_0" index="0" speed="13.89" length="15.14" shape="46450.44,35350.87 46451.22,35347.19 46451.50,35343.41 46451.30,35339.61 46450.68,35335.88"/>
    </edge>
    <edge id=":1013_8" function="internal">
        <lane id=":1013_8_0" index="0" speed="3.65" length="1.44" shape="46450.44,35350.87 46451.55,35349.94"/>
    </edge>
    <edge id=":1013_11" function="internal">
        <lane id=":1013_11_0" index="0" speed="3.65" length="3.23" shape="46451.55,35349.94 46452.42,35349.78 46453.08,35350.39 46453.52,35351.76"/>
    </edge>
    <edge id=":10174_0" function="internal">
        <lane id=":10174_0_0" index="0" speed="3.65" length="4.67" shape="76887.19,48798.63 76888.60,48798.88 76889.29,48799.46 76889.24,48800.35 76888.46,48801.56"/>
    </edge>
    <edge id=":102_0" function="internal">
        <lane id=":102_0_0" index="0" speed="6.08" length="7.52" shape="46721.87,52672.54 46721.86,52670.49 46722.50,52668.91 46723.79,52667.78 46725.73,52667.12"/>
    </edge>
    <edge id=":102_1" function="internal">
        <lane id=":102_1_0" index="0" speed="3.91" length="2.51" shape="46726.33,52670.27 46725.68,52670.49 46725.25,52670.86 46725.04,52671.39 46725.04,52672.07"/>
    </edge>
    <edge id=":10278_0" function="internal">
        <lane id=":10278_0_0" index="0" speed="8.14" length="8.34" shape="81855.68,42278.51 81853.96,42279.51 81852.62,42280.93 81851.64,42282.76 81851.04,42285.00"/>
    </edge>
    <edge id=":10278_1" function="internal">
        <lane id=":10278_1_0" index="0" speed="11.38" length="11.66" shape="81855.68,42278.51 81852.63,42279.55 81850.06,42279.82 81847.49,42279.39 81844.42,42278.31"/>
    </edge>
    <edge id=":10278_2" function="internal">
        <lane id=":10278_2_0" index="0" speed="3.65" length="1.44" shape="81855.68,42278.51 81854.26,42278.23"/>
    </edge>
    <edge id=":10278_9" function="internal">
        <lane id=":10278_9_0" index="0" speed="3.65" length="3.23" shape="81854.26,42278.23 81853.58,42277.65 81853.64,42276.76 81854.44,42275.56"/>
    </edge>
    <edge id=":10278_3" function="internal">
        <lane id=":10278_3_0" index="0" speed="10.17" length="9.23" shape="81845.60,42275.33 81848.14,42276.30 81850.03,42276.70 81851.91,42276.47 81854.44,42275.56"/>
    </edge>
    <edge id=":10278_4" function="internal">
        <lane id=":10278_4_0" index="0" speed="8.07" length="3.39" shape="81845.60,42275.33 81848.43,42276.92 81848.52,42277.03"/>
    </edge>
    <edge id=":10278_5" function="internal">
        <lane id=":10278_5_0" index="0" speed="3.65" length="1.44" shape="81845.60,42275.33 81846.42,42276.52"/>
    </edge>
    <edge id=":10278_10" function="internal">
        <lane id=":10278_10_0" index="0" speed="8.07" length="8.76" shape="81848.52,42277.03 81850.28,42279.06 81851.15,42281.76 81851.04,42285.00"/>
    </edge>
    <edge id=":10278_11" function="internal">
        <lane id=":10278_11_0" index="0" speed="3.65" length="3.23" shape="81846.42,42276.52 81846.50,42277.41 81845.83,42278.01 81844.42,42278.31"/>
    </edge>
    <edge id=":10278_6" function="internal">
        <lane id=":10278_6_0" index="0" speed="6.56" length="7.73" shape="81847.88,42284.46 81847.95,42282.40 81847.40,42280.68 81846.22,42279.32 81844.42,42278.31"/>
    </edge>
    <edge id=":10278_7" function="internal">
        <lane id=":10278_7_0" index="0" speed="9.49" length="11.55" shape="81847.88,42284.46 81848.72,42281.42 81850.09,42278.92 81851.99,42276.97 81854.44,42275.56"/>
    </edge>
    <edge id=":10278_8" function="internal">
        <lane id=":10278_8_0" index="0" speed="3.65" length="4.67" shape="81847.88,42284.46 81848.87,42283.42 81849.73,42283.16 81850.45,42283.68 81851.04,42285.00"/>
    </edge>
    <edge id=":10286_0" function="internal">
        <lane id=":10286_0_0" index="0" speed="10.48" length="12.84" shape="80742.75,39158.77 80738.71,39159.09 80735.41,39159.89 80732.86,39161.18 80731.04,39162.95"/>
    </edge>
    <edge id=":10286_1" function="internal">
        <lane id=":10286_1_0" index="0" speed="10.94" length="19.78" shape="80742.75,39158.77 80737.79,39158.17 80733.62,39156.19 80730.24,39152.83 80727.65,39148.10"/>
    </edge>
    <edge id=":10286_2" function="internal">
        <lane id=":10286_2_0" index="0" speed="7.54" length="17.57" shape="80742.75,39158.77 80737.73,39158.14 80735.09,39156.02 80734.84,39152.42 80736.97,39147.33"/>
    </edge>
    <edge id=":10286_3" function="internal">
        <lane id=":10286_3_0" index="0" speed="3.65" length="4.67" shape="80742.75,39158.77 80741.54,39157.99 80741.12,39157.20 80741.51,39156.39 80742.70,39155.57"/>
    </edge>
    <edge id=":10286_4" function="internal">
        <lane id=":10286_4_0" index="0" speed="5.83" length="9.94" shape="80739.75,39148.92 80738.49,39151.87 80738.55,39153.97 80739.96,39155.20 80742.70,39155.57"/>
    </edge>
    <edge id=":10286_5" function="internal">
        <lane id=":10286_5_0" index="0" speed="13.89" length="16.52" shape="80739.75,39148.92 80737.75,39152.37 80735.56,39156.04 80733.29,39159.65 80731.04,39162.95"/>
    </edge>
    <edge id=":10286_6" function="internal">
        <lane id=":10286_6_0" index="0" speed="7.38" length="5.59" shape="80739.75,39148.92 80736.41,39153.40"/>
    </edge>
    <edge id=":10286_7" function="internal">
        <lane id=":10286_7_0" index="0" speed="3.65" length="1.44" shape="80739.75,39148.92 80738.46,39149.56"/>
    </edge>
    <edge id=":10286_16" function="internal">
        <lane id=":10286_16_0" index="0" speed="7.38" length="12.41" shape="80736.41,39153.40 80733.28,39154.75 80730.36,39152.99 80727.65,39148.10"/>
    </edge>
    <edge id=":10286_17" function="internal">
        <lane id=":10286_17_0" index="0" speed="3.65" length="3.23" shape="80738.46,39149.56 80737.57,39149.51 80737.07,39148.77 80736.97,39147.33"/>
    </edge>
    <edge id=":10286_8" function="internal">
        <lane id=":10286_8_0" index="0" speed="5.54" length="9.45" shape="80730.62,39146.90 80732.04,39149.47 80733.57,39150.39 80735.22,39149.68 80736.97,39147.33"/>
    </edge>
    <edge id=":10286_9" function="internal">
        <lane id=":10286_9_0" index="0" speed="9.86" length="15.90" shape="80730.62,39146.90 80732.71,39150.75 80735.42,39153.48 80738.75,39155.08 80742.70,39155.57"/>
    </edge>
    <edge id=":10286_10" function="internal">
        <lane id=":10286_10_0" index="0" speed="11.31" length="16.69" shape="80730.62,39146.90 80732.26,39151.90 80732.87,39156.24 80732.47,39159.92 80731.04,39162.95"/>
    </edge>
    <edge id=":10286_11" function="internal">
        <lane id=":10286_11_0" index="0" speed="3.65" length="4.67" shape="80730.62,39146.90 80730.33,39148.31 80729.73,39148.98 80728.84,39148.91 80727.65,39148.10"/>
    </edge>
    <edge id=":10286_12" function="internal">
        <lane id=":10286_12_0" index="0" speed="10.21" length="13.49" shape="80728.44,39161.08 80729.46,39158.78 80729.67,39155.85 80729.07,39152.29 80727.65,39148.10"/>
    </edge>
    <edge id=":10286_13" function="internal">
        <lane id=":10286_13_0" index="0" speed="13.89" length="16.19" shape="80728.44,39161.08 80730.66,39157.83 80732.87,39154.31 80735.00,39150.74 80736.97,39147.33"/>
    </edge>
    <edge id=":10286_14" function="internal">
        <lane id=":10286_14_0" index="0" speed="11.59" length="3.46" shape="80728.44,39161.08 80730.77,39158.74 80730.91,39158.66"/>
    </edge>
    <edge id=":10286_15" function="internal">
        <lane id=":10286_15_0" index="0" speed="3.65" length="1.44" shape="80728.44,39161.08 80729.79,39160.57"/>
    </edge>
    <edge id=":10286_18" function="internal">
        <lane id=":10286_18_0" index="0" speed="11.59" length="12.35" shape="80730.91,39158.66 80733.92,39157.04 80737.90,39155.98 80742.70,39155.57"/>
    </edge>
    <edge id=":10286_19" function="internal">
        <lane id=":10286_19_0" index="0" speed="3.65" length="3.23" shape="80729.79,39160.57 80730.68,39160.72 80731.09,39161.51 80731.04,39162.95"/>
    </edge>
    <edge id=":10289_0" function="internal">
        <lane id=":10289_0_0" index="0" speed="7.96" length="11.28" shape="52257.74,35501.39 52254.25,35501.85 52251.60,35502.91 52249.79,35504.57 52248.82,35506.83"/>
    </edge>
    <edge id=":10289_1" function="internal">
        <lane id=":10289_1_0" index="0" speed="12.43" length="18.60" shape="52257.74,35501.39 52253.03,35501.06 52248.76,35499.69 52244.93,35497.26 52241.54,35493.77"/>
    </edge>
    <edge id=":10289_2" function="internal">
        <lane id=":10289_2_0" index="0" speed="7.50" length="16.51" shape="52257.74,35501.39 52252.97,35500.91 52250.22,35499.00 52249.51,35495.65 52250.81,35490.87"/>
    </edge>
    <edge id=":10289_3" function="internal">
        <lane id=":10289_3_0" index="0" speed="3.65" length="4.67" shape="52257.74,35501.39 52256.50,35500.64 52256.07,35499.85 52256.44,35499.04 52257.60,35498.19"/>
    </edge>
    <edge id=":10289_4" function="internal">
        <lane id=":10289_4_0" index="0" speed="5.83" length="9.42" shape="52253.76,35492.12 52253.00,35494.87 52253.38,35496.81 52254.92,35497.91 52257.60,35498.19"/>
    </edge>
    <edge id=":10289_5" function="internal">
        <lane id=":10289_5_0" index="0" speed="13.89" length="15.54" shape="52253.76,35492.12 52252.32,35495.67 52250.96,35499.37 52249.77,35503.11 52248.82,35506.83"/>
    </edge>
    <edge id=":10289_6" function="internal">
        <lane id=":10289_6_0" index="0" speed="7.41" length="4.64" shape="52253.76,35492.12 52251.40,35496.11"/>
    </edge>
    <edge id=":10289_7" function="internal">
        <lane id=":10289_7_0" index="0" speed="3.65" length="1.44" shape="52253.76,35492.12 52252.56,35492.91"/>
    </edge>
    <edge id=":10289_16" function="internal">
        <lane id=":10289_16_0" index="0" speed="7.41" length="12.02" shape="52251.40,35496.11 52251.23,35496.40 52248.35,35498.11 52245.12,35497.23 52241.54,35493.77"/>
    </edge>
    <edge id=":10289_17" function="internal">
        <lane id=":10289_17_0" index="0" speed="3.65" length="3.23" shape="52252.56,35492.91 52251.67,35492.97 52251.08,35492.29 52250.81,35490.87"/>
    </edge>
    <edge id=":10289_8" function="internal">
        <lane id=":10289_8_0" index="0" speed="5.69" length="9.22" shape="52244.05,35491.79 52246.03,35493.70 52247.82,35494.19 52249.41,35493.25 52250.81,35490.87"/>
    </edge>
    <edge id=":10289_9" function="internal">
        <lane id=":10289_9_0" index="0" speed="11.41" length="15.58" shape="52244.05,35491.79 52246.89,35494.72 52250.10,35496.76 52253.67,35497.92 52257.60,35498.19"/>
    </edge>
    <edge id=":10289_10" function="internal">
        <lane id=":10289_10_0" index="0" speed="12.19" length="16.29" shape="52244.05,35491.79 52246.71,35495.72 52248.39,35499.54 52249.10,35503.24 52248.82,35506.83"/>
    </edge>
    <edge id=":10289_11" function="internal">
        <lane id=":10289_11_0" index="0" speed="3.65" length="4.67" shape="52244.05,35491.79 52244.16,35493.23 52243.79,35494.04 52242.91,35494.22 52241.54,35493.77"/>
    </edge>
    <edge id=":10289_12" function="internal">
        <lane id=":10289_12_0" index="0" speed="11.12" length="13.46" shape="52245.69,35506.15 52245.89,35503.28 52245.26,35500.26 52243.81,35497.09 52241.54,35493.77"/>
    </edge>
    <edge id=":10289_13" function="internal">
        <lane id=":10289_13_0" index="0" speed="13.89" length="16.13" shape="52245.69,35506.15 52246.67,35502.35 52247.92,35498.40 52249.34,35494.51 52250.81,35490.87"/>
    </edge>
    <edge id=":10289_14" function="internal">
        <lane id=":10289_14_0" index="0" speed="9.24" length="3.87" shape="52245.69,35506.15 52247.05,35502.83 52247.25,35502.63"/>
    </edge>
    <edge id=":10289_15" function="internal">
        <lane id=":10289_15_0" index="0" speed="3.65" length="1.44" shape="52245.69,35506.15 52246.73,35505.14"/>
    </edge>
    <edge id=":10289_18" function="internal">
        <lane id=":10289_18_0" index="0" speed="9.24" length="11.65" shape="52247.25,35502.63 52249.49,35500.39 52253.01,35498.85 52257.60,35498.19"/>
    </edge>
    <edge id=":10289_19" function="internal">
        <lane id=":10289_19_0" index="0" speed="3.65" length="3.23" shape="52246.73,35505.14 52247.59,35504.92 52248.29,35505.48 52248.82,35506.83"/>
    </edge>
    <edge id=":10291_0" function="internal">
        <lane id=":10291_0_0" index="0" speed="13.89" length="11.79" shape="58162.48,31633.82 58160.80,31636.58 58159.91,31639.05 58159.53,31641.68 58159.40,31644.96"/>
    </edge>
    <edge id=":10291_1" function="internal">
        <lane id=":10291_1_0" index="0" speed="11.16" length="3.10" shape="58162.48,31633.82 58160.38,31636.10"/>
    </edge>
    <edge id=":10291_2" function="internal">
        <lane id=":10291_2_0" index="0" speed="3.65" length="1.44" shape="58162.48,31633.82 58161.14,31634.34"/>
    </edge>
    <edge id=":10291_9" function="internal">
        <lane id=":10291_9_0" index="0" speed="11.16" length="10.51" shape="58160.38,31636.10 58157.70,31637.81 58154.44,31638.95 58150.60,31639.53"/>
    </edge>
    <edge id=":10291_10" function="internal">
        <lane id=":10291_10_0" index="0" speed="3.65" length="3.23" shape="58161.14,31634.34 58160.25,31634.21 58159.83,31633.42 58159.87,31631.98"/>
    </edge>
    <edge id=":10291_3" function="internal">
        <lane id=":10291_3_0" index="0" speed="9.98" length="10.78" shape="58150.38,31636.33 58153.50,31635.88 58156.12,31635.01 58158.25,31633.70 58159.87,31631.98"/>
    </edge>
    <edge id=":10291_4" function="internal">
        <lane id=":10291_4_0" index="0" speed="7.84" length="14.57" shape="58150.38,31636.33 58154.41,31636.63 58157.26,31638.16 58158.93,31640.94 58159.40,31644.96"/>
    </edge>
    <edge id=":10291_5" function="internal">
        <lane id=":10291_5_0" index="0" speed="3.65" length="4.67" shape="58150.38,31636.33 58151.63,31637.05 58152.09,31637.82 58151.74,31638.64 58150.60,31639.53"/>
    </edge>
    <edge id=":10291_6" function="internal">
        <lane id=":10291_6_0" index="0" speed="6.31" length="9.04" shape="58156.21,31644.88 58155.91,31642.39 58154.88,31640.66 58153.11,31639.71 58150.60,31639.53"/>
    </edge>
    <edge id=":10291_7" function="internal">
        <lane id=":10291_7_0" index="0" speed="13.89" length="13.63" shape="58156.21,31644.88 58156.42,31641.33 58157.00,31638.08 58158.10,31635.01 58159.87,31631.98"/>
    </edge>
    <edge id=":10291_8" function="internal">