<?xml version="1.0" encoding="UTF-8"?>

<!-- generated on 2025-03-26 03:36:18 by Eclipse SUMO netgenerate Version 1.22.0
<netgenerateConfiguration xmlns:xsi="http://www.w3.org/2001/XMLSchema-instance" xsi:noNamespaceSchemaLocation="http://sumo.dlr.de/xsd/netgenerateConfiguration.xsd">

    <random_network>
        <rand value="true"/>
        <rand.iterations value="433"/>
        <rand.max-distance value="2816.307212275008"/>
        <rand.min-distance value="995.4942094354369"/>
        <rand.min-angle value="39.13486412705187"/>
        <rand.neighbor-dist1 value="1.0"/>
        <rand.neighbor-dist2 value="10.0"/>
        <rand.neighbor-dist3 value="5.0"/>
        <rand.neighbor-dist4 value="5.0"/>
        <rand.neighbor-dist5 value="0.0"/>
        <rand.neighbor-dist6 value="0.0"/>
    </random_network>

    <output>
        <output-file value="configs/rand-configs/rand3.net.xml"/>
    </output>

    <tls_building>
        <tls.guess value="true"/>
        <tls.guess.threshold value="0"/>
    </tls_building>

</netgenerateConfiguration>
-->

<net version="1.20" junctionCornerDetail="5" limitTurnSpeed="5.50" xmlns:xsi="http://www.w3.org/2001/XMLSchema-instance" xsi:noNamespaceSchemaLocation="http://sumo.dlr.de/xsd/net_file.xsd">

    <location netOffset="22514.01,24395.71" convBoundary="0.00,0.00,50619.20,54143.59" origBoundary="-22514.01,-24395.71,28105.19,29747.88" projParameter="!"/>

    <edge id=":1_0" function="internal">
        <lane id=":1_0_0" index="0" speed="11.26" length="16.20" shape="22512.52,24403.11 22511.89,24399.89 22510.12,24396.75 22507.18,24393.68 22503.10,24390.69"/>
    </edge>
    <edge id=":1_1" function="internal">
        <lane id=":1_1_0" index="0" speed="13.89" length="18.84" shape="22512.52,24403.11 22512.21,24398.78 22511.51,24393.76 22510.60,24388.77 22509.67,24384.52"/>
    </edge>
    <edge id=":1_2" function="internal">
        <lane id=":1_2_0" index="0" speed="7.91" length="3.57" shape="22512.52,24403.11 22512.97,24399.57"/>
    </edge>
    <edge id=":1_3" function="internal">
        <lane id=":1_3_0" index="0" speed="3.65" length="1.44" shape="22512.52,24403.11 22513.30,24401.90"/>
    </edge>
    <edge id=":1_16" function="internal">
        <lane id=":1_16_0" index="0" speed="7.91" length="10.83" shape="22512.97,24399.57 22513.03,24399.17 22514.68,24396.40 22517.48,24394.81 22521.44,24394.39"/>
    </edge>
    <edge id=":1_17" function="internal">
        <lane id=":1_17_0" index="0" speed="3.65" length="3.23" shape="22513.30,24401.90 22514.10,24401.49 22514.90,24401.88 22515.72,24403.06"/>
    </edge>
    <edge id=":1_4" function="internal">
        <lane id=":1_4_0" index="0" speed="6.39" length="9.04" shape="22521.32,24397.59 22518.83,24397.85 22517.08,24398.85 22516.04,24400.59 22515.72,24403.06"/>
    </edge>
    <edge id=":1_5" function="internal">
        <lane id=":1_5_0" index="0" speed="13.89" length="19.61" shape="22521.32,24397.59 22516.96,24396.81 22511.92,24395.07 22507.03,24392.87 22503.10,24390.69"/>
    </edge>
    <edge id=":1_6" function="internal">
        <lane id=":1_6_0" index="0" speed="10.07" length="4.78" shape="22521.32,24397.59 22517.88,24396.28 22517.06,24395.54"/>
    </edge>
    <edge id=":1_7" function="internal">
        <lane id=":1_7_0" index="0" speed="3.65" length="1.44" shape="22521.32,24397.59 22520.15,24396.75"/>
    </edge>
    <edge id=":1_18" function="internal">
        <lane id=":1_18_0" index="0" speed="10.07" length="13.48" shape="22517.06,24395.54 22514.40,24393.12 22511.46,24388.93 22509.67,24384.52"/>
    </edge>
    <edge id=":1_19" function="internal">
        <lane id=":1_19_0" index="0" speed="3.65" length="3.23" shape="22520.15,24396.75 22519.78,24395.93 22520.21,24395.15 22521.44,24394.39"/>
    </edge>
    <edge id=":1_8" function="internal">
        <lane id=":1_8_0" index="0" speed="9.08" length="14.69" shape="22512.78,24383.77 22514.26,24388.33 22516.19,24391.62 22518.59,24393.64 22521.44,24394.39"/>
    </edge>
    <edge id=":1_9" function="internal">
        <lane id=":1_9_0" index="0" speed="13.89" length="19.54" shape="22512.78,24383.77 22513.72,24388.13 22514.66,24393.37 22515.39,24398.62 22515.72,24403.06"/>
    </edge>
    <edge id=":1_10" function="internal">
        <lane id=":1_10_0" index="0" speed="7.43" length="6.42" shape="22512.78,24383.77 22513.57,24389.98 22513.50,24390.13"/>
    </edge>
    <edge id=":1_11" function="internal">
        <lane id=":1_11_0" index="0" speed="3.65" length="1.44" shape="22512.78,24383.77 22512.29,24385.12"/>
    </edge>
    <edge id=":1_20" function="internal">
        <lane id=":1_20_0" index="0" speed="7.43" length="13.09" shape="22513.50,24390.13 22512.21,24393.20 22508.72,24393.44 22503.10,24390.69"/>
    </edge>
    <edge id=":1_21" function="internal">
        <lane id=":1_21_0" index="0" speed="3.65" length="3.23" shape="22512.29,24385.12 22511.60,24385.70 22510.73,24385.50 22509.67,24384.52"/>
    </edge>
    <edge id=":1_12" function="internal">
        <lane id=":1_12_0" index="0" speed="5.47" length="9.79" shape="22504.82,24387.99 22507.64,24389.37 22509.39,24389.25 22510.06,24387.63 22509.67,24384.52"/>
    </edge>
    <edge id=":1_13" function="internal">
        <lane id=":1_13_0" index="0" speed="13.89" length="17.96" shape="22504.82,24387.99 22508.49,24390.09 22512.84,24392.12 22517.33,24393.69 22521.44,24394.39"/>
    </edge>
    <edge id=":1_14" function="internal">
        <lane id=":1_14_0" index="0" speed="12.18" length="5.03" shape="22504.82,24387.99 22508.72,24391.17"/>
    </edge>
    <edge id=":1_15" function="internal">
        <lane id=":1_15_0" index="0" speed="3.65" length="1.44" shape="22504.82,24387.99 22505.40,24389.31"/>
    </edge>
    <edge id=":1_22" function="internal">
        <lane id=":1_22_0" index="0" speed="12.18" length="14.02" shape="22508.72,24391.17 22512.21,24395.23 22514.73,24399.44 22515.72,24403.06"/>
    </edge>
    <edge id=":1_23" function="internal">
        <lane id=":1_23_0" index="0" speed="3.65" length="3.23" shape="22505.40,24389.31 22505.31,24390.20 22504.54,24390.66 22503.10,24390.69"/>
    </edge>
    <edge id=":10_0" function="internal">
        <lane id=":10_0_0" index="0" speed="13.89" length="14.86" shape="20151.91,22395.21 20148.34,22396.32 20144.83,22397.56 20141.47,22399.08 20138.32,22401.03"/>
    </edge>
    <edge id=":10_1" function="internal">
        <lane id=":10_1_0" index="0" speed="7.38" length="5.05" shape="20151.91,22395.21 20146.94,22396.10"/>
    </edge>
    <edge id=":10_2" function="internal">
        <lane id=":10_2_0" index="0" speed="3.65" length="1.44" shape="20151.91,22395.21 20150.53,22394.80"/>
    </edge>
    <edge id=":10_9" function="internal">
        <lane id=":10_9_0" index="0" speed="7.38" length="12.91" shape="20146.94,22396.10 20146.43,22396.19 20143.22,22395.05 20142.28,22391.77 20143.61,22386.36"/>
    </edge>
    <edge id=":10_10" function="internal">
        <lane id=":10_10_0" index="0" speed="3.65" length="3.23" shape="20150.53,22394.80 20149.91,22394.15 20150.06,22393.27 20150.97,22392.15"/>
    </edge>
    <edge id=":10_3" function="internal">
        <lane id=":10_3_0" index="0" speed="5.54" length="9.44" shape="20146.60,22387.50 20145.90,22390.34 20146.39,22392.07 20148.08,22392.67 20150.97,22392.15"/>
    </edge>
    <edge id=":10_4" function="internal">
        <lane id=":10_4_0" index="0" speed="13.89" length="16.05" shape="20146.60,22387.50 20145.12,22391.17 20143.30,22394.90 20141.06,22398.32 20138.32,22401.03"/>
    </edge>
    <edge id=":10_5" function="internal">
        <lane id=":10_5_0" index="0" speed="3.65" length="1.44" shape="20146.60,22387.50 20145.43,22388.34"/>
    </edge>
    <edge id=":10_11" function="internal">
        <lane id=":10_11_0" index="0" speed="3.65" length="3.23" shape="20145.43,22388.34 20144.54,22388.42 20143.93,22387.77 20143.61,22386.36"/>
    </edge>
    <edge id=":10_6" function="internal">
        <lane id=":10_6_0" index="0" speed="13.89" length="14.28" shape="20136.42,22398.46 20138.99,22395.97 20140.85,22393.05 20142.30,22389.80 20143.61,22386.36"/>
    </edge>
    <edge id=":10_7" function="internal">
        <lane id=":10_7_0" index="0" speed="13.89" length="15.92" shape="20136.42,22398.46 20139.71,22396.43 20143.41,22394.75 20147.24,22393.34 20150.97,22392.15"/>
    </edge>
    <edge id=":10_8" function="internal">
        <lane id=":10_8_0" index="0" speed="3.65" length="1.44" shape="20136.42,22398.46 20137.86,22398.39"/>
    </edge>
    <edge id=":10_12" function="internal">
        <lane id=":10_12_0" index="0" speed="3.65" length="3.23" shape="20137.86,22398.39 20138.65,22398.80 20138.81,22399.68 20138.32,22401.03"/>
    </edge>
    <edge id=":1023_0" function="internal">
        <lane id=":1023_0_0" index="0" speed="6.36" length="4.71" shape="11580.84,27971.90 11580.26,27972.97 11579.48,27973.80 11578.51,27974.40 11577.36,27974.77"/>
    </edge>
    <edge id=":1023_1" function="internal">
        <lane id=":1023_1_0" index="0" speed="4.05" length="1.57" shape="11576.72,27971.64 11577.11,27971.52 11577.43,27971.31 11577.69,27971.04 11577.88,27970.68"/>
    </edge>
    <edge id=":1025_0" function="internal">
        <lane id=":1025_0_0" index="0" speed="12.50" length="18.94" shape="18151.75,44110.02 18147.33,44109.61 18143.18,44108.04 18139.30,44105.30 18135.69,44101.41"/>
    </edge>
    <edge id=":1025_1" function="internal">
        <lane id=":1025_1_0" index="0" speed="7.96" length="5.60" shape="18151.75,44110.02 18147.39,44109.43 18146.47,44108.68"/>
    </edge>
    <edge id=":1025_2" function="internal">
        <lane id=":1025_2_0" index="0" speed="3.65" length="1.44" shape="18151.75,44110.02 18150.52,44109.27"/>
    </edge>
    <edge id=":1025_9" function="internal">
        <lane id=":1025_9_0" index="0" speed="7.96" length="11.53" shape="18146.47,44108.68 18144.72,44107.25 18143.75,44103.49 18144.48,44098.15"/>
    </edge>
    <edge id=":1025_10" function="internal">
        <lane id=":1025_10_0" index="0" speed="3.65" length="3.23" shape="18150.52,44109.27 18150.10,44108.48 18150.46,44107.67 18151.63,44106.83"/>
    </edge>
    <edge id=":1025_3" function="internal">
        <lane id=":1025_3_0" index="0" speed="6.45" length="10.81" shape="18147.58,44098.95 18147.05,44102.48 18147.55,44104.97 18149.08,44106.42 18151.63,44106.83"/>
    </edge>
    <edge id=":1025_4" function="internal">
        <lane id=":1025_4_0" index="0" speed="7.38" length="17.90" shape="18147.58,44098.95 18145.55,44104.11 18142.89,44106.23 18139.60,44105.33 18135.69,44101.41"/>
    </edge>
    <edge id=":1025_5" function="internal">
        <lane id=":1025_5_0" index="0" speed="3.65" length="1.44" shape="18147.58,44098.95 18146.51,44099.91"/>
    </edge>
    <edge id=":1025_11" function="internal">
        <lane id=":1025_11_0" index="0" speed="3.65" length="3.23" shape="18146.51,44099.91 18145.63,44100.10 18144.96,44099.51 18144.48,44098.15"/>
    </edge>
    <edge id=":1025_6" function="internal">
        <lane id=":1025_6_0" index="0" speed="5.55" length="9.43" shape="18138.22,44099.44 18140.28,44101.51 18142.01,44101.99 18143.41,44100.87 18144.48,44098.15"/>
    </edge>
    <edge id=":1025_7" function="internal">
        <lane id=":1025_7_0" index="0" speed="11.48" length="15.90" shape="18138.22,44099.44 18141.29,44102.78 18144.55,44105.12 18148.00,44106.47 18151.63,44106.83"/>
    </edge>
    <edge id=":1025_8" function="internal">
        <lane id=":1025_8_0" index="0" speed="3.65" length="1.44" shape="18138.22,44099.44 18138.32,44100.88"/>
    </edge>
    <edge id=":1025_12" function="internal">
        <lane id=":1025_12_0" index="0" speed="3.65" length="3.23" shape="18138.32,44100.88 18137.94,44101.69 18137.06,44101.86 18135.69,44101.41"/>
    </edge>
    <edge id=":1027_0" function="internal">
        <lane id=":1027_0_0" index="0" speed="8.91" length="12.86" shape="16559.23,42070.76 16556.42,42067.62 16553.71,42065.58 16551.11,42064.66 16548.61,42064.85"/>
    </edge>
    <edge id=":1027_1" function="internal">
        <lane id=":1027_1_0" index="0" speed="7.38" length="17.83" shape="16559.23,42070.76 16556.42,42066.02 16556.36,42062.62 16559.06,42060.55 16564.53,42059.82"/>
    </edge>
    <edge id=":1027_2" function="internal">
        <lane id=":1027_2_0" index="0" speed="3.65" length="1.44" shape="16559.23,42070.76 16559.13,42069.32"/>
    </edge>
    <edge id=":1027_9" function="internal">
        <lane id=":1027_9_0" index="0" speed="3.65" length="3.23" shape="16559.13,42069.32 16559.52,42068.51 16560.39,42068.34 16561.76,42068.80"/>
    </edge>
    <edge id=":1027_3" function="internal">
        <lane id=":1027_3_0" index="0" speed="5.55" length="9.42" shape="16564.56,42063.02 16561.67,42063.40 16560.24,42064.50 16560.27,42066.29 16561.76,42068.80"/>
    </edge>
    <edge id=":1027_4" function="internal">
        <lane id=":1027_4_0" index="0" speed="13.89" length="16.09" shape="16564.56,42063.02 16560.63,42063.12 16556.51,42063.41 16552.42,42063.96 16548.61,42064.85"/>
    </edge>
    <edge id=":1027_5" function="internal">
        <lane id=":1027_5_0" index="0" speed="3.65" length="1.44" shape="16564.56,42063.02 16563.35,42062.23"/>
    </edge>
    <edge id=":1027_10" function="internal">
        <lane id=":1027_10_0" index="0" speed="3.65" length="3.23" shape="16563.35,42062.23 16562.94,42061.43 16563.34,42060.63 16564.53,42059.82"/>
    </edge>
    <edge id=":1027_6" function="internal">
        <lane id=":1027_6_0" index="0" speed="13.89" length="17.00" shape="16547.68,42061.79 16551.63,42060.87 16556.02,42060.27 16560.46,42059.94 16564.53,42059.82"/>
    </edge>
    <edge id=":1027_7" function="internal">
        <lane id=":1027_7_0" index="0" speed="10.09" length="3.89" shape="16547.68,42061.79 16551.18,42061.43 16551.54,42061.54"/>
    </edge>
    <edge id=":1027_8" function="internal">
        <lane id=":1027_8_0" index="0" speed="3.65" length="1.44" shape="16547.68,42061.79 16549.06,42062.20"/>
    </edge>
    <edge id=":1027_11" function="internal">
        <lane id=":1027_11_0" index="0" speed="10.09" length="12.83" shape="16551.54,42061.54 16554.70,42062.48 16558.22,42064.93 16561.76,42068.80"/>
    </edge>
    <edge id=":1027_12" function="internal">
        <lane id=":1027_12_0" index="0" speed="3.65" length="3.23" shape="16549.06,42062.20 16549.68,42062.85 16549.53,42063.74 16548.61,42064.85"/>
    </edge>
    <edge id=":1033_0" function="internal">
        <lane id=":1033_0_0" index="0" speed="13.89" length="17.24" shape="20183.17,44031.13 20179.39,44032.64 20175.01,44033.74 20170.53,44034.45 20166.43,44034.77"/>
    </edge>
    <edge id=":1033_1" function="internal">
        <lane id=":1033_1_0" index="0" speed="9.17" length="4.16" shape="20183.17,44031.13 20179.61,44032.18 20179.17,44032.11"/>
    </edge>
    <edge id=":1033_2" function="internal">
        <lane id=":1033_2_0" index="0" speed="3.65" length="1.44" shape="20183.17,44031.13 20181.74,44030.97"/>
    </edge>
    <edge id=":1033_9" function="internal">
        <lane id=":1033_9_0" index="0" speed="9.17" length="12.37" shape="20179.17,44032.11 20176.08,44031.62 20172.58,44029.45 20169.12,44025.67"/>
    </edge>
    <edge id=":1033_10" function="internal">
        <lane id=":1033_10_0" index="0" speed="3.65" length="3.23" shape="20181.74,44030.97 20181.02,44030.45 20181.01,44029.55 20181.70,44028.29"/>
    </edge>
    <edge id=":1033_3" function="internal">
        <lane id=":1033_3_0" index="0" speed="7.89" length="12.01" shape="20171.67,44023.74 20174.28,44026.65 20176.82,44028.38 20179.29,44028.93 20181.70,44028.29"/>
    </edge>
    <edge id=":1033_4" function="internal">
        <lane id=":1033_4_0" index="0" speed="7.38" length="17.46" shape="20171.67,44023.74 20174.32,44028.38 20174.33,44031.77 20171.70,44033.90 20166.43,44034.77"/>
    </edge>
    <edge id=":1033_5" function="internal">
        <lane id=":1033_5_0" index="0" speed="3.65" length="1.44" shape="20171.67,44023.74 20171.75,44025.18"/>
    </edge>
    <edge id=":1033_11" function="internal">
        <lane id=":1033_11_0" index="0" speed="3.65" length="3.23" shape="20171.75,44025.18 20171.36,44025.98 20170.48,44026.14 20169.12,44025.67"/>
    </edge>
    <edge id=":1033_6" function="internal">
        <lane id=":1033_6_0" index="0" speed="5.59" length="9.35" shape="20166.31,44031.57 20169.13,44031.10 20170.54,44029.96 20170.53,44028.15 20169.12,44025.67"/>
    </edge>
    <edge id=":1033_7" function="internal">
        <lane id=":1033_7_0" index="0" speed="13.89" length="15.85" shape="20166.31,44031.57 20170.20,44031.30 20174.21,44030.72 20178.13,44029.75 20181.70,44028.29"/>
    </edge>
    <edge id=":1033_8" function="internal">
        <lane id=":1033_8_0" index="0" speed="3.65" length="1.44" shape="20166.31,44031.57 20167.54,44032.33"/>
    </edge>
    <edge id=":1033_12" function="internal">
        <lane id=":1033_12_0" index="0" speed="3.65" length="3.23" shape="20167.54,44032.33 20167.96,44033.11 20167.60,44033.92 20166.43,44034.77"/>
    </edge>
    <edge id=":1036_0" function="internal">
        <lane id=":1036_0_0" index="0" speed="6.27" length="5.22" shape="18124.06,37337.71 18122.92,37338.45 18121.73,37338.82 18120.48,37338.82 18119.17,37338.45"/>
    </edge>
    <edge id=":1036_1" function="internal">
        <lane id=":1036_1_0" index="0" speed="4.01" length="1.74" shape="18120.39,37335.50 18120.82,37335.62 18121.24,37335.62 18121.64,37335.49 18122.02,37335.25"/>
    </edge>
    <edge id=":1063_0" function="internal">
        <lane id=":1063_0_0" index="0" speed="4.18" length="1.28" shape="22750.45,35454.57 22750.13,35454.61 22749.83,35454.72 22749.57,35454.89 22749.33,35455.12"/>
    </edge>
    <edge id=":1063_1" function="internal">
        <lane id=":1063_1_0" index="0" speed="6.61" length="3.84" shape="22746.91,35453.02 22747.62,35452.34 22748.42,35451.84 22749.30,35451.52 22750.27,35451.37"/>
    </edge>
    <edge id=":1155_0" function="internal">
        <lane id=":1155_0_0" index="0" speed="3.65" length="4.67" shape="24535.63,34088.68 24536.90,34088.00 24537.80,34088.03 24538.31,34088.76 24538.44,34090.20"/>
    </edge>
    <edge id=":1259_0" function="internal">
        <lane id=":1259_0_0" index="0" speed="6.16" length="6.12" shape="29273.14,32340.13 29274.28,32341.28 29274.92,32342.58 29275.06,32344.01 29274.70,32345.59"/>
    </edge>
    <edge id=":1259_1" function="internal">
        <lane id=":1259_1_0" index="0" speed="3.95" length="2.04" shape="29271.70,32344.48 29271.82,32343.95 29271.77,32343.47 29271.56,32343.04 29271.18,32342.66"/>
    </edge>
    <edge id=":1269_0" function="internal">
        <lane id=":1269_0_0" index="0" speed="5.50" length="9.60" shape="29963.45,35209.86 29962.93,35206.88 29961.80,35205.52 29960.05,35205.78 29957.68,35207.68"/>
    </edge>
    <edge id=":1269_1" function="internal">
        <lane id=":1269_1_0" index="0" speed="9.88" length="16.09" shape="29963.45,35209.86 29962.72,35205.29 29961.09,35201.68 29958.57,35199.02 29955.14,35197.32"/>
    </edge>
    <edge id=":1269_2" function="internal">
        <lane id=":1269_2_0" index="0" speed="10.83" length="3.94" shape="29963.45,35209.86 29963.51,35205.92"/>
    </edge>
    <edge id=":1269_3" function="internal">
        <lane id=":1269_3_0" index="0" speed="3.65" length="1.33" shape="29963.45,35209.86 29964.12,35208.72"/>
    </edge>
    <edge id=":1269_16" function="internal">
        <lane id=":1269_16_0" index="0" speed="10.83" length="13.42" shape="29963.51,35205.92 29963.53,35204.31 29964.46,35199.85 29966.23,35196.49 29968.83,35194.22"/>
    </edge>
    <edge id=":1269_17" function="internal">
        <lane id=":1269_17_0" index="0" speed="3.65" length="3.34" shape="29964.12,35208.72 29964.18,35208.62 29964.96,35208.18 29965.78,35208.53 29966.64,35209.69"/>
    </edge>
    <edge id=":1269_4" function="internal">
        <lane id=":1269_4_0" index="0" speed="9.72" length="13.84" shape="29970.42,35197.00 29968.56,35198.72 29967.31,35201.40 29966.67,35205.06 29966.64,35209.69"/>
    </edge>
    <edge id=":1269_5" function="internal">
        <lane id=":1269_5_0" index="0" speed="13.89" length="16.66" shape="29970.42,35197.00 29967.09,35199.21 29963.74,35201.93 29960.54,35204.86 29957.68,35207.68"/>
    </edge>
    <edge id=":1269_6" function="internal">
        <lane id=":1269_6_0" index="0" speed="12.58" length="3.37" shape="29970.42,35197.00 29967.29,35198.26"/>
    </edge>
    <edge id=":1269_7" function="internal">
        <lane id=":1269_7_0" index="0" speed="3.65" length="1.44" shape="29970.42,35197.00 29968.98,35196.90"/>
    </edge>
    <edge id=":1269_18" function="internal">
        <lane id=":1269_18_0" index="0" speed="12.58" length="12.32" shape="29967.29,35198.26 29963.70,35198.73 29959.65,35198.42 29955.14,35197.32"/>
    </edge>
    <edge id=":1269_19" function="internal">
        <lane id=":1269_19_0" index="0" speed="3.65" length="3.23" shape="29968.98,35196.90 29968.23,35196.40 29968.18,35195.51 29968.83,35194.22"/>
    </edge>
    <edge id=":1269_8" function="internal">
        <lane id=":1269_8_0" index="0" speed="11.51" length="13.07" shape="29956.10,35194.27 29959.95,35195.23 29963.36,35195.54 29966.32,35195.20 29968.83,35194.22"/>
    </edge>
    <edge id=":1269_9" function="internal">
        <lane id=":1269_9_0" index="0" speed="10.96" length="19.98" shape="29956.10,35194.27 29960.46,35196.40 29963.67,35199.68 29965.73,35204.11 29966.64,35209.69"/>
    </edge>
    <edge id=":1269_10" function="internal">
        <lane id=":1269_10_0" index="0" speed="7.72" length="7.13" shape="29956.10,35194.27 29960.44,35196.44 29961.58,35198.41"/>
    </edge>
    <edge id=":1269_11" function="internal">
        <lane id=":1269_11_0" index="0" speed="3.65" length="1.44" shape="29956.10,35194.27 29957.00,35195.39"/>
    </edge>
    <edge id=":1269_20" function="internal">
        <lane id=":1269_20_0" index="0" speed="7.72" length="10.75" shape="29961.58,35198.41 29962.15,35199.40 29961.23,35203.15 29957.68,35207.68"/>
    </edge>
    <edge id=":1269_21" function="internal">
        <lane id=":1269_21_0" index="0" speed="3.65" length="3.23" shape="29957.00,35195.39 29957.15,35196.27 29956.52,35196.92 29955.14,35197.32"/>
    </edge>
    <edge id=":1269_12" function="internal">
        <lane id=":1269_12_0" index="0" speed="6.10" length="10.64" shape="29955.41,35205.43 29957.66,35202.63 29958.36,35200.34 29957.52,35198.57 29955.14,35197.32"/>
    </edge>
    <edge id=":1269_13" function="internal">
        <lane id=":1269_13_0" index="0" speed="13.89" length="17.53" shape="29955.41,35205.43 29958.37,35202.52 29961.81,35199.42 29965.39,35196.51 29968.83,35194.22"/>
    </edge>
    <edge id=":1269_14" function="internal">
        <lane id=":1269_14_0" index="0" speed="7.40" length="5.91" shape="29955.41,35205.43 29960.02,35201.74"/>
    </edge>
    <edge id=":1269_15" function="internal">
        <lane id=":1269_15_0" index="0" speed="3.65" length="1.44" shape="29955.41,35205.43 29956.82,35205.14"/>
    </edge>
    <edge id=":1269_22" function="internal">
        <lane id=":1269_22_0" index="0" speed="7.40" length="12.81" shape="29960.02,35201.74 29963.43,35201.22 29965.64,35203.87 29966.64,35209.69"/>
    </edge>
    <edge id=":1269_23" function="internal">
        <lane id=":1269_23_0" index="0" speed="3.65" length="3.23" shape="29956.82,35205.14 29957.67,35205.42 29957.96,35206.26 29957.68,35207.68"/>
    </edge>
    <edge id=":1271_0" function="internal">
        <lane id=":1271_0_0" index="0" speed="6.38" length="13.34" shape="28558.96,36624.01 28555.69,36626.62 28553.23,36626.99 28551.59,36625.12 28550.76,36621.02"/>
    </edge>
    <edge id=":1271_1" function="internal">
        <lane id=":1271_1_0" index="0" speed="4.06" length="4.45" shape="28553.95,36620.76 28554.23,36622.13 28554.77,36622.75 28555.59,36622.63 28556.68,36621.76"/>
    </edge>
    <edge id=":1379_0" function="internal">
        <lane id=":1379_0_0" index="0" speed="13.89" length="0.57" shape="16329.28,10748.91 16329.13,10748.83 16329.03,10748.78 16328.92,10748.75 16328.75,10748.71"/>
    </edge>
    <edge id=":1379_1" function="internal">
        <lane id=":1379_1_0" index="0" speed="10.29" length="1.71" shape="16329.33,10745.57 16329.82,10745.66 16330.16,10745.76 16330.47,10745.91 16330.91,10746.16"/>
    </edge>
    <edge id=":1381_0" function="internal">
        <lane id=":1381_0_0" index="0" speed="3.95" length="3.57" shape="20262.60,11098.50 20262.33,11097.48 20261.84,11096.95 20261.11,11096.90 20260.15,11097.34"/>
    </edge>
    <edge id=":1381_1" function="internal">
        <lane id=":1381_1_0" index="0" speed="6.16" length="10.72" shape="20258.43,11094.65 20261.30,11093.32 20263.49,11093.46 20264.98,11095.06 20265.78,11098.13"/>
    </edge>
    <edge id=":1392_0" function="internal">
        <lane id=":1392_0_0" index="0" speed="4.01" length="1.72" shape="14985.07,42540.33 14984.66,42540.50 14984.34,42540.76 14984.11,42541.11 14983.97,42541.53"/>
    </edge>
    <edge id=":1392_1" function="internal">
        <lane id=":1392_1_0" index="0" speed="6.28" length="5.15" shape="14980.83,42540.87 14981.26,42539.60 14981.95,42538.58 14982.91,42537.80 14984.13,42537.26"/>
    </edge>
    <edge id=":1394_0" function="internal">
        <lane id=":1394_0_0" index="0" speed="6.08" length="8.79" shape="21857.13,43158.58 21858.35,43160.74 21858.48,43162.66 21857.55,43164.34 21855.53,43165.78"/>
    </edge>
    <edge id=":1394_1" function="internal">
        <lane id=":1394_1_0" index="0" speed="3.90" length="2.93" shape="21854.06,43162.93 21854.73,43162.45 21855.05,43161.89 21855.00,43161.26 21854.60,43160.54"/>
    </edge>
    <edge id=":1400_0" function="internal">
        <lane id=":1400_0_0" index="0" speed="5.92" length="10.73" shape="16821.34,36812.73 16819.46,36809.52 16817.60,36808.09 16815.78,36808.47 16814.00,36810.64"/>
    </edge>
    <edge id=":1400_1" function="internal">
        <lane id=":1400_1_0" index="0" speed="13.89" length="17.69" shape="16821.34,36812.73 16819.37,36809.01 16816.73,36805.09 16813.65,36801.60 16810.32,36799.20"/>
    </edge>
    <edge id=":1400_2" function="internal">
        <lane id=":1400_2_0" index="0" speed="7.45" length="19.82" shape="16821.34,36812.73 16819.30,36806.67 16819.99,36803.23 16823.41,36802.39 16829.55,36804.17"/>
    </edge>
    <edge id=":1400_3" function="internal">
        <lane id=":1400_3_0" index="0" speed="3.65" length="1.44" shape="16821.34,36812.73 16821.56,36811.31"/>
    </edge>
    <edge id=":1400_16" function="internal">
        <lane id=":1400_16_0" index="0" speed="3.65" length="3.23" shape="16821.56,36811.31 16822.12,36810.61 16823.02,36810.64 16824.24,36811.39"/>
    </edge>
    <edge id=":1400_4" function="internal">
        <lane id=":1400_4_0" index="0" speed="5.46" length="9.86" shape="16828.33,36807.13 16825.27,36806.25 16823.57,36806.66 16823.23,36808.38 16824.24,36811.39"/>
    </edge>
    <edge id=":1400_5" function="internal">
        <lane id=":1400_5_0" index="0" speed="8.99" length="16.34" shape="16828.33,36807.13 16823.70,36805.82 16819.77,36805.96 16816.54,36807.57 16814.00,36810.64"/>
    </edge>
    <edge id=":1400_6" function="internal">
        <lane id=":1400_6_0" index="0" speed="13.89" length="19.67" shape="16828.33,36807.13 16810.32,36799.20"/>
    </edge>
    <edge id=":1400_7" function="internal">
        <lane id=":1400_7_0" index="0" speed="3.65" length="1.44" shape="16828.33,36807.13 16827.52,36805.94"/>
    </edge>
    <edge id=":1400_17" function="internal">
        <lane id=":1400_17_0" index="0" speed="3.65" length="3.23" shape="16827.52,36805.94 16827.46,36805.05 16828.13,36804.46 16829.55,36804.17"/>
    </edge>
    <edge id=":1400_8" function="internal">
        <lane id=":1400_8_0" index="0" speed="13.89" length="19.47" shape="16811.73,36796.33 16829.55,36804.17"/>
    </edge>
    <edge id=":1400_9" function="internal">
        <lane id=":1400_9_0" index="0" speed="13.89" length="19.81" shape="16811.73,36796.33 16815.29,36798.97 16818.89,36802.98 16822.04,36807.43 16824.24,36811.39"/>
    </edge>
    <edge id=":1400_10" function="internal">
        <lane id=":1400_10_0" index="0" speed="8.43" length="16.70" shape="16811.73,36796.33 16814.95,36798.73 16816.40,36801.91 16816.08,36805.88 16814.00,36810.64"/>
    </edge>
    <edge id=":1400_11" function="internal">
        <lane id=":1400_11_0" index="0" speed="3.65" length="1.44" shape="16811.73,36796.33 16812.46,36797.57"/>
    </edge>
    <edge id=":1400_18" function="internal">
        <lane id=":1400_18_0" index="0" speed="3.65" length="3.23" shape="16812.46,36797.57 16812.47,36798.47 16811.75,36799.01 16810.32,36799.20"/>
    </edge>
    <edge id=":1400_12" function="internal">
        <lane id=":1400_12_0" index="0" speed="7.04" length="11.30" shape="16811.22,36809.04 16812.76,36805.68 16813.12,36802.92 16812.31,36800.76 16810.32,36799.20"/>
    </edge>
    <edge id=":1400_13" function="internal">
        <lane id=":1400_13_0" index="0" speed="10.13" length="21.01" shape="16811.22,36809.04 16814.54,36804.98 16818.70,36802.81 16823.70,36802.54 16829.55,36804.17"/>
    </edge>
    <edge id=":1400_14" function="internal">
        <lane id=":1400_14_0" index="0" speed="7.64" length="18.86" shape="16811.22,36809.04 16814.53,36804.88 16817.80,36803.89 16821.04,36806.06 16824.24,36811.39"/>
    </edge>
    <edge id=":1400_15" function="internal">
        <lane id=":1400_15_0" index="0" speed="3.65" length="1.44" shape="16811.22,36809.04 16812.52,36808.40"/>
    </edge>
    <edge id=":1400_19" function="internal">
        <lane id=":1400_19_0" index="0" speed="3.65" length="3.23" shape="16812.52,36808.40 16813.41,36808.45 16813.90,36809.20 16814.00,36810.64"/>
    </edge>
    <edge id=":1412_0" function="internal">
        <lane id=":1412_0_0" index="0" speed="11.18" length="1.62" shape="32244.95,33899.59 32244.63,33899.95 32244.39,33900.18 32244.12,33900.36 32243.71,33900.61"/>
    </edge>