<?xml version="1.0" encoding="UTF-8"?>

<!-- generated on 2025-04-14 17:00:29 by Eclipse SUMO netgenerate Version 1.22.0
<netgenerateConfiguration xmlns:xsi="http://www.w3.org/2001/XMLSchema-instance" xsi:noNamespaceSchemaLocation="http://sumo.dlr.de/xsd/netgenerateConfiguration.xsd">

    <random_network>
        <rand value="true"/>
        <rand.iterations value="101"/>
        <rand.max-distance value="1437.5118995901134"/>
        <rand.min-distance value="150.0"/>
        <rand.min-angle value="90.0"/>
        <rand.neighbor-dist1 value="3.0"/>
        <rand.neighbor-dist2 value="1.0"/>
        <rand.neighbor-dist3 value="0.0"/>
        <rand.neighbor-dist4 value="5.0"/>
        <rand.neighbor-dist5 value="0.0"/>
        <rand.neighbor-dist6 value="0.0"/>
        <rand.grid value="true"/>
    </random_network>

    <output>
        <output-file value="configs/rand-configs/rand1.net.xml"/>
    </output>

    <building_defaults>
        <default.lanenumber value="2"/>
    </building_defaults>

    <tls_building>
        <tls.guess value="true"/>
        <tls.guess.threshold value="0"/>
    </tls_building>

</netgenerateConfiguration>
-->

<net version="1.20" junctionCornerDetail="5" limitTurnSpeed="5.50" xmlns:xsi="http://www.w3.org/2001/XMLSchema-instance" xsi:noNamespaceSchemaLocation="http://sumo.dlr.de/xsd/net_file.xsd">

    <location netOffset="3900.00,1950.00" convBoundary="0.00,0.00,7500.00,10050.00" origBoundary="-3900.00,-1950.00,3600.00,8100.00" projParameter="!"/>

    <edge id=":1_0" function="internal">
        <lane id=":1_0_0" index="0" speed="6.51" length="9.03" shape="3895.20,1960.40 3894.85,1957.95 3893.80,1956.20 3892.05,1955.15 3889.60,1954.80"/>
    </edge>
    <edge id=":1_1" function="internal">
        <lane id=":1_1_0" index="0" speed="13.89" length="20.80" shape="3895.20,1960.40 3895.20,1939.60"/>
        <lane id=":1_1_1" index="1" speed="13.89" length="20.80" shape="3898.40,1960.40 3898.40,1939.60"/>
    </edge>
    <edge id=":1_3" function="internal">
        <lane id=":1_3_0" index="0" speed="9.26" length="5.01" shape="3898.40,1960.40 3899.11,1955.44"/>
    </edge>
    <edge id=":1_4" function="internal">
        <lane id=":1_4_0" index="0" speed="3.65" length="1.44" shape="3898.40,1960.40 3899.20,1959.20"/>
    </edge>
    <edge id=":1_20" function="internal">
        <lane id=":1_20_0" index="0" speed="9.26" length="14.34" shape="3899.11,1955.44 3899.15,1955.15 3901.40,1951.40 3905.15,1949.15 3910.40,1948.40"/>
    </edge>
    <edge id=":1_21" function="internal">
        <lane id=":1_21_0" index="0" speed="3.65" length="3.23" shape="3899.20,1959.20 3900.00,1958.80 3900.80,1959.20 3901.60,1960.40"/>
    </edge>
    <edge id=":1_5" function="internal">
        <lane id=":1_5_0" index="0" speed="6.51" length="9.03" shape="3910.40,1954.80 3907.95,1955.15 3906.20,1956.20 3905.15,1957.95 3904.80,1960.40"/>
    </edge>
    <edge id=":1_6" function="internal">
        <lane id=":1_6_0" index="0" speed="13.89" length="20.80" shape="3910.40,1954.80 3889.60,1954.80"/>
        <lane id=":1_6_1" index="1" speed="13.89" length="20.80" shape="3910.40,1951.60 3889.60,1951.60"/>
    </edge>
    <edge id=":1_8" function="internal">
        <lane id=":1_8_0" index="0" speed="9.26" length="5.01" shape="3910.40,1951.60 3905.44,1950.89"/>
    </edge>
    <edge id=":1_9" function="internal">
        <lane id=":1_9_0" index="0" speed="3.65" length="1.44" shape="3910.40,1951.60 3909.20,1950.80"/>
    </edge>
    <edge id=":1_22" function="internal">
        <lane id=":1_22_0" index="0" speed="9.26" length="14.34" shape="3905.44,1950.89 3905.15,1950.85 3901.40,1948.60 3899.15,1944.85 3898.40,1939.60"/>
    </edge>
    <edge id=":1_23" function="internal">
        <lane id=":1_23_0" index="0" speed="3.65" length="3.23" shape="3909.20,1950.80 3908.80,1950.00 3909.20,1949.20 3910.40,1948.40"/>
    </edge>
    <edge id=":1_10" function="internal">
        <lane id=":1_10_0" index="0" speed="6.51" length="9.03" shape="3904.80,1939.60 3905.15,1942.05 3906.20,1943.80 3907.95,1944.85 3910.40,1945.20"/>
    </edge>
    <edge id=":1_11" function="internal">
        <lane id=":1_11_0" index="0" speed="13.89" length="20.80" shape="3904.80,1939.60 3904.80,1960.40"/>
        <lane id=":1_11_1" index="1" speed="13.89" length="20.80" shape="3901.60,1939.60 3901.60,1960.40"/>
    </edge>
    <edge id=":1_13" function="internal">
        <lane id=":1_13_0" index="0" speed="9.26" length="5.01" shape="3901.60,1939.60 3900.89,1944.56"/>
    </edge>
    <edge id=":1_14" function="internal">
        <lane id=":1_14_0" index="0" speed="3.65" length="1.44" shape="3901.60,1939.60 3900.80,1940.80"/>
    </edge>
    <edge id=":1_24" function="internal">
        <lane id=":1_24_0" index="0" speed="9.26" length="14.34" shape="3900.89,1944.56 3900.85,1944.85 3898.60,1948.60 3894.85,1950.85 3889.60,1951.60"/>
    </edge>
    <edge id=":1_25" function="internal">
        <lane id=":1_25_0" index="0" speed="3.65" length="3.23" shape="3900.80,1940.80 3900.00,1941.20 3899.20,1940.80 3898.40,1939.60"/>
    </edge>
    <edge id=":1_15" function="internal">
        <lane id=":1_15_0" index="0" speed="6.51" length="9.03" shape="3889.60,1945.20 3892.05,1944.85 3893.80,1943.80 3894.85,1942.05 3895.20,1939.60"/>
    </edge>
    <edge id=":1_16" function="internal">
        <lane id=":1_16_0" index="0" speed="13.89" length="20.80" shape="3889.60,1945.20 3910.40,1945.20"/>
        <lane id=":1_16_1" index="1" speed="13.89" length="20.80" shape="3889.60,1948.40 3910.40,1948.40"/>
    </edge>
    <edge id=":1_18" function="internal">
        <lane id=":1_18_0" index="0" speed="9.26" length="5.01" shape="3889.60,1948.40 3894.56,1949.11"/>
    </edge>
    <edge id=":1_19" function="internal">
        <lane id=":1_19_0" index="0" speed="3.65" length="1.44" shape="3889.60,1948.40 3890.80,1949.20"/>
    </edge>
    <edge id=":1_26" function="internal">
        <lane id=":1_26_0" index="0" speed="9.26" length="14.34" shape="3894.56,1949.11 3894.85,1949.15 3898.60,1951.40 3900.85,1955.15 3901.60,1960.40"/>
    </edge>
    <edge id=":1_27" function="internal">
        <lane id=":1_27_0" index="0" speed="3.65" length="3.23" shape="3890.80,1949.20 3891.20,1950.00 3890.80,1950.80 3889.60,1951.60"/>
    </edge>
    <edge id=":10_0" function="internal">
        <lane id=":10_0_0" index="0" speed="6.51" length="9.03" shape="3745.20,1960.40 3744.85,1957.95 3743.80,1956.20 3742.05,1955.15 3739.60,1954.80"/>
        <lane id=":10_0_1" index="1" speed="8.00" length="14.19" shape="3748.40,1960.40 3747.85,1956.55 3746.20,1953.80 3743.45,1952.15 3739.60,1951.60"/>
    </edge>
    <edge id=":10_2" function="internal">
        <lane id=":10_2_0" index="0" speed="9.26" length="19.35" shape="3748.40,1960.40 3749.15,1955.15 3751.40,1951.40 3755.15,1949.15 3760.40,1948.40"/>
    </edge>
    <edge id=":10_3" function="internal">
        <lane id=":10_3_0" index="0" speed="3.65" length="2.34" shape="3748.40,1960.40 3749.20,1959.20 3750.00,1958.80"/>
    </edge>
    <edge id=":10_12" function="internal">
        <lane id=":10_12_0" index="0" speed="3.65" length="2.34" shape="3750.00,1958.80 3750.80,1959.20 3751.60,1960.40"/>
    </edge>
    <edge id=":10_4" function="internal">
        <lane id=":10_4_0" index="0" speed="6.51" length="9.03" shape="3760.40,1954.80 3757.95,1955.15 3756.20,1956.20 3755.15,1957.95 3754.80,1960.40"/>
    </edge>
    <edge id=":10_5" function="internal">
        <lane id=":10_5_0" index="0" speed="13.89" length="20.80" shape="3760.40,1954.80 3739.60,1954.80"/>
        <lane id=":10_5_1" index="1" speed="13.89" length="20.80" shape="3760.40,1951.60 3739.60,1951.60"/>
    </edge>
    <edge id=":10_7" function="internal">
        <lane id=":10_7_0" index="0" speed="3.65" length="1.44" shape="3760.40,1951.60 3759.20,1950.80"/>
    </edge>
    <edge id=":10_13" function="internal">
        <lane id=":10_13_0" index="0" speed="3.65" length="3.23" shape="3759.20,1950.80 3758.80,1950.00 3759.20,1949.20 3760.40,1948.40"/>
    </edge>
    <edge id=":10_8" function="internal">
        <lane id=":10_8_0" index="0" speed="13.89" length="20.80" shape="3739.60,1945.20 3760.40,1945.20"/>
        <lane id=":10_8_1" index="1" speed="13.89" length="20.80" shape="3739.60,1948.40 3760.40,1948.40"/>
    </edge>
    <edge id=":10_10" function="internal">
        <lane id=":10_10_0" index="0" speed="9.26" length="5.01" shape="3739.60,1948.40 3744.56,1949.11"/>
    </edge>
    <edge id=":10_11" function="internal">
        <lane id=":10_11_0" index="0" speed="3.65" length="1.44" shape="3739.60,1948.40 3740.80,1949.20"/>
    </edge>
    <edge id=":10_14" function="internal">
        <lane id=":10_14_0" index="0" speed="9.26" length="14.34" shape="3744.56,1949.11 3744.85,1949.15 3748.60,1951.40 3750.85,1955.15 3751.60,1960.40"/>
    </edge>
    <edge id=":10_15" function="internal">
        <lane id=":10_15_0" index="0" speed="3.65" length="3.23" shape="3740.80,1949.20 3741.20,1950.00 3740.80,1950.80 3739.60,1951.60"/>
    </edge>
    <edge id=":1113_0" function="internal">
        <lane id=":1113_0_0" index="0" speed="13.89" length="0.10" shape="2545.20,2400.00 2545.20,2400.00"/>
        <lane id=":1113_0_1" index="1" speed="13.89" length="0.10" shape="2548.40,2400.00 2548.40,2400.00"/>
    </edge>
    <edge id=":1113_2" function="internal">
        <lane id=":1113_2_0" index="0" speed="13.89" length="0.10" shape="2554.80,2400.00 2554.80,2400.00"/>
        <lane id=":1113_2_1" index="1" speed="13.89" length="0.10" shape="2551.60,2400.00 2551.60,2400.00"/>
    </edge>
    <edge id=":1157_0" function="internal">
        <lane id=":1157_0_0" index="0" speed="3.65" length="4.67" shape="3151.60,8250.00 3150.80,8251.20 3150.00,8251.60 3149.20,8251.20 3148.40,8250.00"/>
    </edge>
    <edge id=":1159_0" function="internal">
        <lane id=":1159_0_0" index="0" speed="3.65" length="4.67" shape="3301.60,9450.00 3300.80,9451.20 3300.00,9451.60 3299.20,9451.20 3298.40,9450.00"/>
    </edge>
    <edge id=":1276_0" function="internal">
        <lane id=":1276_0_0" index="0" speed="3.65" length="4.67" shape="4798.40,750.00 4799.20,748.80 4800.00,748.40 4800.80,748.80 4801.60,750.00"/>
    </edge>
    <edge id=":1280_0" function="internal">
        <lane id=":1280_0_0" index="0" speed="3.65" length="4.67" shape="6148.40,1650.00 6149.20,1648.80 6150.00,1648.40 6150.80,1648.80 6151.60,1650.00"/>
    </edge>
    <edge id=":1291_0" function="internal">
        <lane id=":1291_0_0" index="0" speed="13.89" length="0.10" shape="3000.00,1954.80 3000.00,1954.80"/>
        <lane id=":1291_0_1" index="1" speed="13.89" length="0.10" shape="3000.00,1951.60 3000.00,1951.60"/>
    </edge>
    <edge id=":1291_2" function="internal">
        <lane id=":1291_2_0" index="0" speed="13.89" length="0.10" shape="3000.00,1945.20 3000.00,1945.20"/>
        <lane id=":1291_2_1" index="1" speed="13.89" length="0.10" shape="3000.00,1948.40 3000.00,1948.40"/>
    </edge>
    <edge id=":1303_0" function="internal">
        <lane id=":1303_0_0" index="0" speed="6.51" length="9.03" shape="1495.20,6160.40 1494.85,6157.95 1493.80,6156.20 1492.05,6155.15 1489.60,6154.80"/>
    </edge>
    <edge id=":1303_1" function="internal">
        <lane id=":1303_1_0" index="0" speed="13.89" length="20.80" shape="1495.20,6160.40 1495.20,6139.60"/>
        <lane id=":1303_1_1" index="1" speed="13.89" length="20.80" shape="1498.40,6160.40 1498.40,6139.60"/>
    </edge>
    <edge id=":1303_3" function="internal">
        <lane id=":1303_3_0" index="0" speed="9.26" length="5.01" shape="1498.40,6160.40 1499.11,6155.44"/>
    </edge>
    <edge id=":1303_4" function="internal">
        <lane id=":1303_4_0" index="0" speed="3.65" length="1.44" shape="1498.40,6160.40 1499.20,6159.20"/>
    </edge>
    <edge id=":1303_20" function="internal">
        <lane id=":1303_20_0" index="0" speed="9.26" length="14.34" shape="1499.11,6155.44 1499.15,6155.15 1501.40,6151.40 1505.15,6149.15 1510.40,6148.40"/>
    </edge>
    <edge id=":1303_21" function="internal">
        <lane id=":1303_21_0" index="0" speed="3.65" length="3.23" shape="1499.20,6159.20 1500.00,6158.80 1500.80,6159.20 1501.60,6160.40"/>
    </edge>
    <edge id=":1303_5" function="internal">
        <lane id=":1303_5_0" index="0" speed="6.51" length="9.03" shape="1510.40,6154.80 1507.95,6155.15 1506.20,6156.20 1505.15,6157.95 1504.80,6160.40"/>
    </edge>
    <edge id=":1303_6" function="internal">
        <lane id=":1303_6_0" index="0" speed="13.89" length="20.80" shape="1510.40,6154.80 1489.60,6154.80"/>
        <lane id=":1303_6_1" index="1" speed="13.89" length="20.80" shape="1510.40,6151.60 1489.60,6151.60"/>
    </edge>
    <edge id=":1303_8" function="internal">
        <lane id=":1303_8_0" index="0" speed="9.26" length="5.01" shape="1510.40,6151.60 1505.44,6150.89"/>
    </edge>
    <edge id=":1303_9" function="internal">
        <lane id=":1303_9_0" index="0" speed="3.65" length="1.44" shape="1510.40,6151.60 1509.20,6150.80"/>
    </edge>
    <edge id=":1303_22" function="internal">
        <lane id=":1303_22_0" index="0" speed="9.26" length="14.34" shape="1505.44,6150.89 1505.15,6150.85 1501.40,6148.60 1499.15,6144.85 1498.40,6139.60"/>
    </edge>
    <edge id=":1303_23" function="internal">
        <lane id=":1303_23_0" index="0" speed="3.65" length="3.23" shape="1509.20,6150.80 1508.80,6150.00 1509.20,6149.20 1510.40,6148.40"/>
    </edge>
    <edge id=":1303_10" function="internal">
        <lane id=":1303_10_0" index="0" speed="6.51" length="9.03" shape="1504.80,6139.60 1505.15,6142.05 1506.20,6143.80 1507.95,6144.85 1510.40,6145.20"/>
    </edge>
    <edge id=":1303_11" function="internal">
        <lane id=":1303_11_0" index="0" speed="13.89" length="20.80" shape="1504.80,6139.60 1504.80,6160.40"/>
        <lane id=":1303_11_1" index="1" speed="13.89" length="20.80" shape="1501.60,6139.60 1501.60,6160.40"/>
    </edge>
    <edge id=":1303_13" function="internal">
        <lane id=":1303_13_0" index="0" speed="9.26" length="5.01" shape="1501.60,6139.60 1500.89,6144.56"/>
    </edge>
    <edge id=":1303_14" function="internal">
        <lane id=":1303_14_0" index="0" speed="3.65" length="1.44" shape="1501.60,6139.60 1500.80,6140.80"/>
    </edge>
    <edge id=":1303_24" function="internal">
        <lane id=":1303_24_0" index="0" speed="9.26" length="14.34" shape="1500.89,6144.56 1500.85,6144.85 1498.60,6148.60 1494.85,6150.85 1489.60,6151.60"/>
    </edge>
    <edge id=":1303_25" function="internal">
        <lane id=":1303_25_0" index="0" speed="3.65" length="3.23" shape="1500.80,6140.80 1500.00,6141.20 1499.20,6140.80 1498.40,6139.60"/>
    </edge>
    <edge id=":1303_15" function="internal">
        <lane id=":1303_15_0" index="0" speed="6.51" length="9.03" shape="1489.60,6145.20 1492.05,6144.85 1493.80,6143.80 1494.85,6142.05 1495.20,6139.60"/>
    </edge>
    <edge id=":1303_16" function="internal">
        <lane id=":1303_16_0" index="0" speed="13.89" length="20.80" shape="1489.60,6145.20 1510.40,6145.20"/>
        <lane id=":1303_16_1" index="1" speed="13.89" length="20.80" shape="1489.60,6148.40 1510.40,6148.40"/>
    </edge>
    <edge id=":1303_18" function="internal">
        <lane id=":1303_18_0" index="0" speed="9.26" length="5.01" shape="1489.60,6148.40 1494.56,6149.11"/>
    </edge>
    <edge id=":1303_19" function="internal">
        <lane id=":1303_19_0" index="0" speed="3.65" length="1.44" shape="1489.60,6148.40 1490.80,6149.20"/>
    </edge>
    <edge id=":1303_26" function="internal">
        <lane id=":1303_26_0" index="0" speed="9.26" length="14.34" shape="1494.56,6149.11 1494.85,6149.15 1498.60,6151.40 1500.85,6155.15 1501.60,6160.40"/>
    </edge>
    <edge id=":1303_27" function="internal">
        <lane id=":1303_27_0" index="0" speed="3.65" length="3.23" shape="1490.80,6149.20 1491.20,6150.00 1490.80,6150.80 1489.60,6151.60"/>
    </edge>
    <edge id=":1342_0" function="internal">
        <lane id=":1342_0_0" index="0" speed="8.96" length="18.06" shape="1495.20,6006.40 1495.90,6001.50 1498.00,5998.00 1501.50,5995.90 1506.40,5995.20"/>
        <lane id=":1342_0_1" index="1" speed="7.66" length="12.90" shape="1498.40,6006.40 1498.90,6002.90 1500.40,6000.40 1502.90,5998.90 1506.40,5998.40"/>
    </edge>
    <edge id=":1342_2" function="internal">
        <lane id=":1342_2_0" index="0" speed="3.90" length="2.58" shape="1506.40,6004.80 1505.70,6004.90 1505.20,6005.20 1504.90,6005.70 1504.80,6006.40"/>
        <lane id=":1342_2_1" index="1" speed="6.08" length="7.74" shape="1506.40,6001.60 1504.30,6001.90 1502.80,6002.80 1501.90,6004.30 1501.60,6006.40"/>
    </edge>
    <edge id=":1354_0" function="internal">
        <lane id=":1354_0_0" index="0" speed="3.65" length="4.67" shape="1350.00,6151.60 1348.80,6150.80 1348.40,6150.00 1348.80,6149.20 1350.00,6148.40"/>
    </edge>
    <edge id=":1398_0" function="internal">
        <lane id=":1398_0_0" index="0" speed="13.89" length="0.10" shape="1650.00,6154.80 1650.00,6154.80"/>
        <lane id=":1398_0_1" index="1" speed="13.89" length="0.10" shape="1650.00,6151.60 1650.00,6151.60"/>
    </edge>
    <edge id=":1398_2" function="internal">
        <lane id=":1398_2_0" index="0" speed="13.89" length="0.10" shape="1650.00,6145.20 1650.00,6145.20"/>
        <lane id=":1398_2_1" index="1" speed="13.89" length="0.10" shape="1650.00,6148.40 1650.00,6148.40"/>
    </edge>
    <edge id=":14_0" function="internal">
        <lane id=":14_0_0" index="0" speed="8.96" length="18.06" shape="3904.80,3293.60 3904.10,3298.50 3902.00,3302.00 3898.50,3304.10 3893.60,3304.80"/>
        <lane id=":14_0_1" index="1" speed="7.66" length="12.90" shape="3901.60,3293.60 3901.10,3297.10 3899.60,3299.60 3897.10,3301.10 3893.60,3301.60"/>
    </edge>
    <edge id=":14_2" function="internal">
        <lane id=":14_2_0" index="0" speed="3.90" length="2.58" shape="3893.60,3295.20 3894.30,3295.10 3894.80,3294.80 3895.10,3294.30 3895.20,3293.60"/>
        <lane id=":14_2_1" index="1" speed="6.08" length="7.74" shape="3893.60,3298.40 3895.70,3298.10 3897.20,3297.20 3898.10,3295.70 3898.40,3293.60"/>
    </edge>
    <edge id=":1427_0" function="internal">
        <lane id=":1427_0_0" index="0" speed="3.65" length="4.67" shape="7350.00,2848.40 7351.20,2849.20 7351.60,2850.00 7351.20,2850.80 7350.00,2851.60"/>
    </edge>
    <edge id=":1430_0" function="internal">
        <lane id=":1430_0_0" index="0" speed="3.65" length="4.67" shape="1650.00,1951.60 1648.80,1950.80 1648.40,1950.00 1648.80,1949.20 1650.00,1948.40"/>
    </edge>
    <edge id=":1445_0" function="internal">
        <lane id=":1445_0_0" index="0" speed="3.65" length="4.67" shape="1950.00,5998.40 1951.20,5999.20 1951.60,6000.00 1951.20,6000.80 1950.00,6001.60"/>
    </edge>
    <edge id=":1448_0" function="internal">
        <lane id=":1448_0_0" index="0" speed="3.65" length="4.67" shape="1950.00,6148.40 1951.20,6149.20 1951.60,6150.00 1951.20,6150.80 1950.00,6151.60"/>
    </edge>
    <edge id=":1455_0" function="internal">
        <lane id=":1455_0_0" index="0" speed="3.65" length="4.67" shape="1.60,3750.00 0.80,3751.20 0.00,3751.60 -0.80,3751.20 -1.60,3750.00"/>
    </edge>
    <edge id=":1467_0" function="internal">
        <lane id=":1467_0_0" index="0" speed="3.65" length="4.67" shape="7500.00,8398.40 7501.20,8399.20 7501.60,8400.00 7501.20,8400.80 7500.00,8401.60"/>
    </edge>
    <edge id=":1483_0" function="internal">
        <lane id=":1483_0_0" index="0" speed="3.65" length="4.67" shape="3451.60,4650.00 3450.80,4651.20 3450.00,4651.60 3449.20,4651.20 3448.40,4650.00"/>
    </edge>
    <edge id=":17_0" function="internal">
        <lane id=":17_0_0" index="0" speed="6.51" length="9.03" shape="4795.20,2410.40 4794.85,2407.95 4793.80,2406.20 4792.05,2405.15 4789.60,2404.80"/>
    </edge>
    <edge id=":17_1" function="internal">
        <lane id=":17_1_0" index="0" speed="13.89" length="20.80" shape="4795.20,2410.40 4795.20,2389.60"/>
        <lane id=":17_1_1" index="1" speed="13.89" length="20.80" shape="4798.40,2410.40 4798.40,2389.60"/>
    </edge>
    <edge id=":17_3" function="internal">
        <lane id=":17_3_0" index="0" speed="9.26" length="5.01" shape="4798.40,2410.40 4799.11,2405.44"/>
    </edge>
    <edge id=":17_4" function="internal">
        <lane id=":17_4_0" index="0" speed="3.65" length="1.44" shape="4798.40,2410.40 4799.20,2409.20"/>
    </edge>
    <edge id=":17_20" function="internal">
        <lane id=":17_20_0" index="0" speed="9.26" length="14.34" shape="4799.11,2405.44 4799.15,2405.15 4801.40,2401.40 4805.15,2399.15 4810.40,2398.40"/>
    </edge>
    <edge id=":17_21" function="internal">
        <lane id=":17_21_0" index="0" speed="3.65" length="3.23" shape="4799.20,2409.20 4800.00,2408.80 4800.80,2409.20 4801.60,2410.40"/>
    </edge>
    <edge id=":17_5" function="internal">
        <lane id=":17_5_0" index="0" speed="6.51" length="9.03" shape="4810.40,2404.80 4807.95,2405.15 4806.20,2406.20 4805.15,2407.95 4804.80,2410.40"/>
    </edge>
    <edge id=":17_6" function="internal">
        <lane id=":17_6_0" index="0" speed="13.89" length="20.80" shape="4810.40,2404.80 4789.60,2404.80"/>
        <lane id=":17_6_1" index="1" speed="13.89" length="20.80" shape="4810.40,2401.60 4789.60,2401.60"/>
    </edge>
    <edge id=":17_8" function="internal">
        <lane id=":17_8_0" index="0" speed="9.26" length="5.01" shape="4810.40,2401.60 4805.44,2400.89"/>
    </edge>
    <edge id=":17_9" function="internal">
        <lane id=":17_9_0" index="0" speed="3.65" length="1.44" shape="4810.40,2401.60 4809.20,2400.80"/>
    </edge>
    <edge id=":17_22" function="internal">
        <lane id=":17_22_0" index="0" speed="9.26" length="14.34" shape="4805.44,2400.89 4805.15,2400.85 4801.40,2398.60 4799.15,2394.85 4798.40,2389.60"/>
    </edge>
    <edge id=":17_23" function="internal">
        <lane id=":17_23_0" index="0" speed="3.65" length="3.23" shape="4809.20,2400.80 4808.80,2400.00 4809.20,2399.20 4810.40,2398.40"/>
    </edge>
    <edge id=":17_10" function="internal">
        <lane id=":17_10_0" index="0" speed="6.51" length="9.03" shape="4804.80,2389.60 4805.15,2392.05 4806.20,2393.80 4807.95,2394.85 4810.40,2395.20"/>
    </edge>
    <edge id=":17_11" function="internal">
        <lane id=":17_11_0" index="0" speed="13.89" length="20.80" shape="4804.80,2389.60 4804.80,2410.40"/>
        <lane id=":17_11_1" index="1" speed="13.89" length="20.80" shape="4801.60,2389.60 4801.60,2410.40"/>
    </edge>
    <edge id=":17_13" function="internal">
        <lane id=":17_13_0" index="0" speed="9.26" length="5.01" shape="4801.60,2389.60 4800.89,2394.56"/>
    </edge>
    <edge id=":17_14" function="internal">
        <lane id=":17_14_0" index="0" speed="3.65" length="1.44" shape="4801.60,2389.60 4800.80,2390.80"/>
    </edge>
    <edge id=":17_24" function="internal">
        <lane id=":17_24_0" index="0" speed="9.26" length="14.34" shape="4800.89,2394.56 4800.85,2394.85 4798.60,2398.60 4794.85,2400.85 4789.60,2401.60"/>
    </edge>
    <edge id=":17_25" function="internal">
        <lane id=":17_25_0" index="0" speed="3.65" length="3.23" shape="4800.80,2390.80 4800.00,2391.20 4799.20,2390.80 4798.40,2389.60"/>
    </edge>
    <edge id=":17_15" function="internal">
        <lane id=":17_15_0" index="0" speed="6.51" length="9.03" shape="4789.60,2395.20 4792.05,2394.85 4793.80,2393.80 4794.85,2392.05 4795.20,2389.60"/>
    </edge>
    <edge id=":17_16" function="internal">
        <lane id=":17_16_0" index="0" speed="13.89" length="20.80" shape="4789.60,2395.20 4810.40,2395.20"/>
        <lane id=":17_16_1" index="1" speed="13.89" length="20.80" shape="4789.60,2398.40 4810.40,2398.40"/>
    </edge>
    <edge id=":17_18" function="internal">
        <lane id=":17_18_0" index="0" speed="9.26" length="5.01" shape="4789.60,2398.40 4794.56,2399.11"/>
    </edge>
    <edge id=":17_19" function="internal">
        <lane id=":17_19_0" index="0" speed="3.65" length="1.44" shape="4789.60,2398.40 4790.80,2399.20"/>
    </edge>
    <edge id=":17_26" function="internal">
        <lane id=":17_26_0" index="0" speed="9.26" length="14.34" shape="4794.56,2399.11 4794.85,2399.15 4798.60,2401.40 4800.85,2405.15 4801.60,2410.40"/>
    </edge>
    <edge id=":17_27" function="internal">
        <lane id=":17_27_0" index="0" speed="3.65" length="3.23" shape="4790.80,2399.20 4791.20,2400.00 4790.80,2400.80 4789.60,2401.60"/>
    </edge>
    <edge id=":179_0" function="internal">
        <lane id=":179_0_0" index="0" speed="8.96" length="18.06" shape="4206.40,4354.80 4201.50,4354.10 4198.00,4352.00 4195.90,4348.50 4195.20,4343.60"/>
        <lane id=":179_0_1" index="1" speed="7.66" length="12.90" shape="4206.40,4351.60 4202.90,4351.10 4200.40,4349.60 4198.90,4347.10 4198.40,4343.60"/>
    </edge>
    <edge id=":179_2" function="internal">
        <lane id=":179_2_0" index="0" speed="3.90" length="2.58" shape="4204.80,4343.60 4204.90,4344.30 4205.20,4344.80 4205.70,4345.10 4206.40,4345.20"/>
        <lane id=":179_2_1" index="1" speed="6.08" length="7.74" shape="4201.60,4343.60 4201.90,4345.70 4202.80,4347.20 4204.30,4348.10 4206.40,4348.40"/>
    </edge>
    <edge id=":185_0" function="internal">
        <lane id=":185_0_0" index="0" speed="8.96" length="18.06" shape="3006.40,754.80 3001.50,754.10 2998.00,752.00 2995.90,748.50 2995.20,743.60"/>
        <lane id=":185_0_1" index="1" speed="7.66" length="12.90" shape="3006.40,751.60 3002.90,751.10 3000.40,749.60 2998.90,747.10 2998.40,743.60"/>
    </edge>
    <edge id=":185_2" function="internal">
        <lane id=":185_2_0" index="0" speed="3.90" length="2.58" shape="3004.80,743.60 3004.90,744.30 3005.20,744.80 3005.70,745.10 3006.40,745.20"/>
        <lane id=":185_2_1" index="1" speed="6.08" length="7.74" shape="3001.60,743.60 3001.90,745.70 3002.80,747.20 3004.30,748.10 3006.40,748.40"/>
    </edge>
    <edge id=":190_0" function="internal">
        <lane id=":190_0_0" index="0" speed="13.89" length="0.10" shape="5250.00,4354.80 5250.00,4354.80"/>
        <lane id=":190_0_1" index="1" speed="13.89" length="0.10" shape="5250.00,4351.60 5250.00,4351.60"/>
    </edge>
    <edge id=":190_2" function="internal">
        <lane id=":190_2_0" index="0" speed="13.89" length="0.10" shape="5250.00,4345.20 5250.00,4345.20"/>
        <lane id=":190_2_1" index="1" speed="13.89" length="0.10" shape="5250.00,4348.40 5250.00,4348.40"/>
    </edge>
    <edge id=":2_0" function="internal">
        <lane id=":2_0_0" index="0" speed="6.51" length="9.03" shape="3895.20,760.40 3894.85,757.95 3893.80,756.20 3892.05,755.15 3889.60,754.80"/>
    </edge>
    <edge id=":2_1" function="internal">
        <lane id=":2_1_0" index="0" speed="13.89" length="20.80" shape="3895.20,760.40 3895.20,739.60"/>
        <lane id=":2_1_1" index="1" speed="13.89" length="20.80" shape="3898.40,760.40 3898.40,739.60"/>
    </edge>
    <edge id=":2_3" function="internal">
        <lane id=":2_3_0" index="0" speed="3.65" length="1.44" shape="3898.40,760.40 3899.20,759.20"/>
    </edge>
    <edge id=":2_12" function="internal">
        <lane id=":2_12_0" index="0" speed="3.65" length="3.23" shape="3899.20,759.20 3900.00,758.80 3900.80,759.20 3901.60,760.40"/>
    </edge>
    <edge id=":2_4" function="internal">
        <lane id=":2_4_0" index="0" speed="13.89" length="20.80" shape="3904.80,739.60 3904.80,760.40"/>
        <lane id=":2_4_1" index="1" speed="13.89" length="20.80" shape="3901.60,739.60 3901.60,760.40"/>
    </edge>
    <edge id=":2_6" function="internal">
        <lane id=":2_6_0" index="0" speed="9.26" length="5.01" shape="3901.60,739.60 3900.89,744.56"/>
    </edge>
    <edge id=":2_7" function="internal">
        <lane id=":2_7_0" index="0" speed="3.65" length="1.44" shape="3901.60,739.60 3900.80,740.80"/>
    </edge>
    <edge id=":2_13" function="internal">
        <lane id=":2_13_0" index="0" speed="9.26" length="14.34" shape="3900.89,744.56 3900.85,744.85 3898.60,748.60 3894.85,750.85 3889.60,751.60"/>
    </edge>
    <edge id=":2_14" function="internal">
        <lane id=":2_14_0" index="0" speed="3.65" length="3.23" shape="3900.80,740.80 3900.00,741.20 3899.20,740.80 3898.40,739.60"/>
    </edge>
    <edge id=":2_8" function="internal">
        <lane id=":2_8_0" index="0" speed="6.51" length="9.03" shape="3889.60,745.20 3892.05,744.85 3893.80,743.80 3894.85,742.05 3895.20,739.60"/>
        <lane id=":2_8_1" index="1" speed="8.00" length="14.19" shape="3889.60,748.40 3893.45,747.85 3896.20,746.20 3897.85,743.45 3898.40,739.60"/>
    </edge>
    <edge id=":2_10" function="internal">
        <lane id=":2_10_0" index="0" speed="9.26" length="19.35" shape="3889.60,748.40 3894.85,749.15 3898.60,751.40 3900.85,755.15 3901.60,760.40"/>
    </edge>
    <edge id=":2_11" function="internal">
        <lane id=":2_11_0" index="0" speed="3.65" length="2.34" shape="3889.60,748.40 3890.80,749.20 3891.20,750.00"/>
    </edge>
    <edge id=":2_15" function="internal">
        <lane id=":2_15_0" index="0" speed="3.65" length="2.34" shape="3891.20,750.00 3890.80,750.80 3889.60,751.60"/>
    </edge>
    <edge id=":20_0" function="internal">
        <lane id=":20_0_0" index="0" speed="8.96" length="18.06" shape="3756.40,3304.80 3751.50,3304.10 3748.00,3302.00 3745.90,3298.50 3745.20,3293.60"/>
        <lane id=":20_0_1" index="1" speed="7.66" length="12.90" shape="3756.40,3301.60 3752.90,3301.10 3750.40,3299.60 3748.90,3297.10 3748.40,3293.60"/>
    </edge>
    <edge id=":20_2" function="internal">
        <lane id=":20_2_0" index="0" speed="3.90" length="2.58" shape="3754.80,3293.60 3754.90,3294.30 3755.20,3294.80 3755.70,3295.10 3756.40,3295.20"/>
        <lane id=":20_2_1" index="1" speed="6.08" length="7.74" shape="3751.60,3293.60 3751.90,3295.70 3752.80,3297.20 3754.30,3298.10 3756.40,3298.40"/>
    </edge>
    <edge id=":202_0" function="internal">