<?xml version="1.0" encoding="UTF-8"?>

<!-- generated on 2025-03-26 03:36:18 by Eclipse SUMO netgenerate Version 1.22.0
<netgenerateConfiguration xmlns:xsi="http://www.w3.org/2001/XMLSchema-instance" xsi:noNamespaceSchemaLocation="http://sumo.dlr.de/xsd/netgenerateConfiguration.xsd">

    <random_network>
        <rand value="true"/>
        <rand.iterations value="174"/>
        <rand.max-distance value="2092.5280495886177"/>
        <rand.min-distance value="696.6136857329799"/>
        <rand.min-angle value="40.40283904143961"/>
        <rand.neighbor-dist1 value="1.0"/>
        <rand.neighbor-dist2 value="10.0"/>
        <rand.neighbor-dist3 value="5.0"/>
        <rand.neighbor-dist4 value="5.0"/>
        <rand.neighbor-dist5 value="0.0"/>
        <rand.neighbor-dist6 value="0.0"/>
    </random_network>

    <output>
        <output-file value="configs/rand-configs/rand1.net.xml"/>
    </output>

    <tls_building>
        <tls.guess value="true"/>
        <tls.guess.threshold value="0"/>
    </tls_building>

</netgenerateConfiguration>
-->

<net version="1.20" junctionCornerDetail="5" limitTurnSpeed="5.50" xmlns:xsi="http://www.w3.org/2001/XMLSchema-instance" xsi:noNamespaceSchemaLocation="http://sumo.dlr.de/xsd/net_file.xsd">

    <location netOffset="16880.68,11070.60" convBoundary="0.00,0.00,27943.79,22214.17" origBoundary="-16880.68,-11070.60,11063.11,11143.56" projParameter="!"/>

    <edge id=":1_0" function="internal">
        <lane id=":1_0_0" index="0" speed="11.26" length="16.20" shape="16879.20,11078.00 16878.57,11074.78 16876.79,11071.64 16873.86,11068.57 16869.78,11065.58"/>
    </edge>
    <edge id=":1_1" function="internal">
        <lane id=":1_1_0" index="0" speed="13.89" length="18.84" shape="16879.20,11078.00 16878.88,11073.67 16878.18,11068.65 16877.28,11063.66 16876.35,11059.41"/>
    </edge>
    <edge id=":1_2" function="internal">
        <lane id=":1_2_0" index="0" speed="7.91" length="3.57" shape="16879.20,11078.00 16879.65,11074.46"/>
    </edge>
    <edge id=":1_3" function="internal">
        <lane id=":1_3_0" index="0" speed="3.65" length="1.44" shape="16879.20,11078.00 16879.98,11076.79"/>
    </edge>
    <edge id=":1_16" function="internal">
        <lane id=":1_16_0" index="0" speed="7.91" length="10.83" shape="16879.65,11074.46 16879.70,11074.06 16881.36,11071.29 16884.16,11069.70 16888.11,11069.28"/>
    </edge>
    <edge id=":1_17" function="internal">
        <lane id=":1_17_0" index="0" speed="3.65" length="3.23" shape="16879.98,11076.79 16880.77,11076.38 16881.58,11076.77 16882.40,11077.95"/>
    </edge>
    <edge id=":1_4" function="internal">
        <lane id=":1_4_0" index="0" speed="6.39" length="9.04" shape="16887.99,11072.48 16885.51,11072.74 16883.75,11073.74 16882.71,11075.48 16882.40,11077.95"/>
    </edge>
    <edge id=":1_5" function="internal">
        <lane id=":1_5_0" index="0" speed="13.89" length="19.61" shape="16887.99,11072.48 16883.63,11071.70 16878.60,11069.96 16873.70,11067.76 16869.78,11065.58"/>
    </edge>
    <edge id=":1_6" function="internal">
        <lane id=":1_6_0" index="0" speed="10.07" length="4.78" shape="16887.99,11072.48 16884.55,11071.17 16883.74,11070.43"/>
    </edge>
    <edge id=":1_7" function="internal">
        <lane id=":1_7_0" index="0" speed="3.65" length="1.44" shape="16887.99,11072.48 16886.82,11071.64"/>
    </edge>
    <edge id=":1_18" function="internal">
        <lane id=":1_18_0" index="0" speed="10.07" length="13.48" shape="16883.74,11070.43 16881.07,11068.01 16878.14,11063.82 16876.35,11059.41"/>
    </edge>
    <edge id=":1_19" function="internal">
        <lane id=":1_19_0" index="0" speed="3.65" length="3.23" shape="16886.82,11071.64 16886.45,11070.82 16886.88,11070.04 16888.11,11069.28"/>
    </edge>
    <edge id=":1_8" function="internal">
        <lane id=":1_8_0" index="0" speed="9.08" length="14.69" shape="16879.46,11058.66 16880.94,11063.22 16882.87,11066.51 16885.26,11068.53 16888.11,11069.28"/>
    </edge>
    <edge id=":1_9" function="internal">
        <lane id=":1_9_0" index="0" speed="13.89" length="19.54" shape="16879.46,11058.66 16880.40,11063.02 16881.34,11068.25 16882.07,11073.51 16882.40,11077.95"/>
    </edge>
    <edge id=":1_10" function="internal">
        <lane id=":1_10_0" index="0" speed="7.43" length="6.42" shape="16879.46,11058.66 16880.24,11064.87 16880.18,11065.02"/>
    </edge>
    <edge id=":1_11" function="internal">
        <lane id=":1_11_0" index="0" speed="3.65" length="1.44" shape="16879.46,11058.66 16878.96,11060.01"/>
    </edge>
    <edge id=":1_20" function="internal">
        <lane id=":1_20_0" index="0" speed="7.43" length="13.09" shape="16880.18,11065.02 16878.89,11068.09 16875.40,11068.33 16869.78,11065.58"/>
    </edge>
    <edge id=":1_21" function="internal">
        <lane id=":1_21_0" index="0" speed="3.65" length="3.23" shape="16878.96,11060.01 16878.28,11060.59 16877.41,11060.39 16876.35,11059.41"/>
    </edge>
    <edge id=":1_12" function="internal">
        <lane id=":1_12_0" index="0" speed="5.47" length="9.79" shape="16871.49,11062.88 16874.31,11064.26 16876.06,11064.14 16876.74,11062.52 16876.35,11059.41"/>
    </edge>
    <edge id=":1_13" function="internal">
        <lane id=":1_13_0" index="0" speed="13.89" length="17.96" shape="16871.49,11062.88 16875.17,11064.98 16879.51,11067.01 16884.00,11068.58 16888.11,11069.28"/>
    </edge>
    <edge id=":1_14" function="internal">
        <lane id=":1_14_0" index="0" speed="12.18" length="5.03" shape="16871.49,11062.88 16875.40,11066.06"/>
    </edge>
    <edge id=":1_15" function="internal">
        <lane id=":1_15_0" index="0" speed="3.65" length="1.44" shape="16871.49,11062.88 16872.08,11064.20"/>
    </edge>
    <edge id=":1_22" function="internal">
        <lane id=":1_22_0" index="0" speed="12.18" length="14.02" shape="16875.40,11066.06 16878.88,11070.12 16881.40,11074.33 16882.40,11077.95"/>
    </edge>
    <edge id=":1_23" function="internal">
        <lane id=":1_23_0" index="0" speed="3.65" length="3.23" shape="16872.08,11064.20 16871.99,11065.09 16871.22,11065.55 16869.78,11065.58"/>
    </edge>
    <edge id=":10_0" function="internal">
        <lane id=":10_0_0" index="0" speed="13.89" length="14.86" shape="15151.40,9581.56 15147.82,9582.67 15144.32,9583.91 15140.95,9585.43 15137.80,9587.38"/>
    </edge>
    <edge id=":10_1" function="internal">
        <lane id=":10_1_0" index="0" speed="7.38" length="5.05" shape="15151.40,9581.56 15146.42,9582.45"/>
    </edge>
    <edge id=":10_2" function="internal">
        <lane id=":10_2_0" index="0" speed="3.65" length="1.44" shape="15151.40,9581.56 15150.01,9581.15"/>
    </edge>
    <edge id=":10_9" function="internal">
        <lane id=":10_9_0" index="0" speed="7.38" length="12.91" shape="15146.42,9582.45 15145.91,9582.54 15142.70,9581.40 15141.76,9578.12 15143.09,9572.71"/>
    </edge>
    <edge id=":10_10" function="internal">
        <lane id=":10_10_0" index="0" speed="3.65" length="3.23" shape="15150.01,9581.15 15149.39,9580.50 15149.54,9579.62 15150.45,9578.50"/>
    </edge>
    <edge id=":10_3" function="internal">
        <lane id=":10_3_0" index="0" speed="5.54" length="9.44" shape="15146.08,9573.85 15145.38,9576.69 15145.88,9578.42 15147.57,9579.02 15150.45,9578.50"/>
    </edge>
    <edge id=":10_4" function="internal">
        <lane id=":10_4_0" index="0" speed="13.89" length="16.05" shape="15146.08,9573.85 15144.60,9577.52 15142.78,9581.25 15140.54,9584.67 15137.80,9587.38"/>
    </edge>
    <edge id=":10_5" function="internal">
        <lane id=":10_5_0" index="0" speed="3.65" length="1.44" shape="15146.08,9573.85 15144.91,9574.69"/>
    </edge>
    <edge id=":10_11" function="internal">
        <lane id=":10_11_0" index="0" speed="3.65" length="3.23" shape="15144.91,9574.69 15144.02,9574.78 15143.41,9574.12 15143.09,9572.71"/>
    </edge>
    <edge id=":10_6" function="internal">
        <lane id=":10_6_0" index="0" speed="13.89" length="14.28" shape="15135.90,9584.81 15138.47,9582.32 15140.34,9579.40 15141.78,9576.15 15143.09,9572.71"/>
    </edge>
    <edge id=":10_7" function="internal">
        <lane id=":10_7_0" index="0" speed="13.89" length="15.92" shape="15135.90,9584.81 15139.20,9582.78 15142.89,9581.10 15146.73,9579.69 15150.45,9578.50"/>
    </edge>
    <edge id=":10_8" function="internal">
        <lane id=":10_8_0" index="0" speed="3.65" length="1.44" shape="15135.90,9584.81 15137.34,9584.74"/>
    </edge>
    <edge id=":10_12" function="internal">
        <lane id=":10_12_0" index="0" speed="3.65" length="3.23" shape="15137.34,9584.74 15138.14,9585.15 15138.29,9586.03 15137.80,9587.38"/>
    </edge>
    <edge id=":1012_0" function="internal">
        <lane id=":1012_0_0" index="0" speed="6.01" length="9.08" shape="19373.81,5408.29 19373.23,5405.76 19372.01,5404.25 19370.12,5403.76 19367.58,5404.28"/>
    </edge>
    <edge id=":1012_1" function="internal">
        <lane id=":1012_1_0" index="0" speed="13.89" length="14.79" shape="19373.81,5408.29 19373.45,5404.59 19372.96,5400.94 19372.32,5397.32 19371.49,5393.70"/>
    </edge>
    <edge id=":1012_2" function="internal">
        <lane id=":1012_2_0" index="0" speed="8.04" length="4.33" shape="19373.81,5408.29 19374.03,5403.96"/>
    </edge>
    <edge id=":1012_3" function="internal">
        <lane id=":1012_3_0" index="0" speed="3.65" length="1.44" shape="19373.81,5408.29 19374.51,5407.03"/>
    </edge>
    <edge id=":1012_16" function="internal">
        <lane id=":1012_16_0" index="0" speed="8.04" length="10.73" shape="19374.03,5403.96 19375.49,5400.85 19378.19,5398.96 19382.14,5398.29"/>
    </edge>
    <edge id=":1012_17" function="internal">
        <lane id=":1012_17_0" index="0" speed="3.65" length="3.23" shape="19374.51,5407.03 19375.27,5406.56 19376.10,5406.90 19377.00,5408.03"/>
    </edge>
    <edge id=":1012_4" function="internal">
        <lane id=":1012_4_0" index="0" speed="6.56" length="9.66" shape="19382.18,5401.49 19379.72,5401.93 19378.03,5403.16 19377.12,5405.20 19377.00,5408.03"/>
    </edge>
    <edge id=":1012_5" function="internal">
        <lane id=":1012_5_0" index="0" speed="13.89" length="14.93" shape="19382.18,5401.49 19378.45,5401.72 19374.77,5402.28 19371.15,5403.14 19367.58,5404.28"/>
    </edge>
    <edge id=":1012_6" function="internal">
        <lane id=":1012_6_0" index="0" speed="8.84" length="3.95" shape="19382.18,5401.49 19378.26,5401.05"/>
    </edge>
    <edge id=":1012_7" function="internal">
        <lane id=":1012_7_0" index="0" speed="3.65" length="1.44" shape="19382.18,5401.49 19380.97,5400.70"/>
    </edge>
    <edge id=":1012_18" function="internal">
        <lane id=":1012_18_0" index="0" speed="8.84" length="10.48" shape="19378.26,5401.05 19375.17,5399.60 19372.91,5397.16 19371.49,5393.70"/>
    </edge>
    <edge id=":1012_19" function="internal">
        <lane id=":1012_19_0" index="0" speed="3.65" length="3.23" shape="19380.97,5400.70 19380.56,5399.91 19380.95,5399.10 19382.14,5398.29"/>
    </edge>
    <edge id=":1012_8" function="internal">
        <lane id=":1012_8_0" index="0" speed="7.49" length="10.10" shape="19374.59,5392.91 19375.59,5395.30 19377.17,5396.99 19379.36,5397.99 19382.14,5398.29"/>
    </edge>
    <edge id=":1012_9" function="internal">
        <lane id=":1012_9_0" index="0" speed="13.89" length="15.32" shape="19374.59,5392.91 19375.43,5396.62 19376.11,5400.42 19376.62,5404.25 19377.00,5408.03"/>
    </edge>
    <edge id=":1012_10" function="internal">
        <lane id=":1012_10_0" index="0" speed="8.49" length="4.01" shape="19374.59,5392.91 19374.93,5396.66 19374.85,5396.89"/>
    </edge>
    <edge id=":1012_11" function="internal">
        <lane id=":1012_11_0" index="0" speed="3.65" length="1.44" shape="19374.59,5392.91 19374.11,5394.27"/>
    </edge>
    <edge id=":1012_20" function="internal">
        <lane id=":1012_20_0" index="0" speed="8.49" length="10.90" shape="19374.85,5396.89 19373.87,5399.80 19371.42,5402.34 19367.58,5404.28"/>
    </edge>
    <edge id=":1012_21" function="internal">
        <lane id=":1012_21_0" index="0" speed="3.65" length="3.23" shape="19374.11,5394.27 19373.44,5394.86 19372.56,5394.67 19371.49,5393.70"/>
    </edge>
    <edge id=":1012_12" function="internal">
        <lane id=":1012_12_0" index="0" speed="7.09" length="10.11" shape="19366.50,5401.27 19369.19,5399.94 19370.92,5398.24 19371.68,5396.16 19371.49,5393.70"/>
    </edge>
    <edge id=":1012_13" function="internal">
        <lane id=":1012_13_0" index="0" speed="13.89" length="15.98" shape="19366.50,5401.27 19370.22,5400.10 19374.21,5399.17 19378.24,5398.55 19382.14,5398.29"/>
    </edge>
    <edge id=":1012_14" function="internal">
        <lane id=":1012_14_0" index="0" speed="7.61" length="4.74" shape="19366.50,5401.27 19370.78,5400.38 19371.13,5400.48"/>
    </edge>
    <edge id=":1012_15" function="internal">
        <lane id=":1012_15_0" index="0" speed="3.65" length="1.44" shape="19366.50,5401.27 19367.90,5401.62"/>
    </edge>
    <edge id=":1012_22" function="internal">
        <lane id=":1012_22_0" index="0" speed="7.61" length="10.58" shape="19371.13,5400.48 19373.96,5401.22 19376.03,5403.76 19377.00,5408.03"/>
    </edge>
    <edge id=":1012_23" function="internal">
        <lane id=":1012_23_0" index="0" speed="3.65" length="3.23" shape="19367.90,5401.62 19368.55,5402.23 19368.44,5403.12 19367.58,5404.28"/>
    </edge>
    <edge id=":1015_0" function="internal">
        <lane id=":1015_0_0" index="0" speed="3.65" length="4.67" shape="12385.18,4789.59 12383.77,4789.29 12383.10,4788.70 12383.18,4787.80 12383.99,4786.62"/>
    </edge>
    <edge id=":1025_0" function="internal">
        <lane id=":1025_0_0" index="0" speed="6.32" length="12.73" shape="8877.99,12829.24 8880.98,12831.82 8881.79,12834.10 8880.41,12836.09 8876.85,12837.79"/>
    </edge>
    <edge id=":1025_1" function="internal">
        <lane id=":1025_1_0" index="0" speed="4.03" length="4.24" shape="8875.84,12834.75 8877.02,12834.19 8877.48,12833.52 8877.21,12832.76 8876.22,12831.90"/>
    </edge>
    <edge id=":1027_0" function="internal">
        <lane id=":1027_0_0" index="0" speed="13.89" length="17.24" shape="6992.68,11734.72 6992.53,11730.62 6992.82,11726.09 6993.60,11721.64 6994.91,11717.78"/>
    </edge>
    <edge id=":1027_1" function="internal">
        <lane id=":1027_1_0" index="0" speed="7.40" length="5.61" shape="6992.68,11734.72 6992.85,11729.63 6993.12,11729.19"/>
    </edge>
    <edge id=":1027_2" function="internal">
        <lane id=":1027_2_0" index="0" speed="3.65" length="1.44" shape="6992.68,11734.72 6993.36,11733.45"/>
    </edge>
    <edge id=":1027_9" function="internal">
        <lane id=":1027_9_0" index="0" speed="7.40" length="11.29" shape="6993.12,11729.19 6994.58,11726.75 6997.87,11726.08 7002.73,11727.63"/>
    </edge>
    <edge id=":1027_10" function="internal">
        <lane id=":1027_10_0" index="0" speed="3.65" length="3.23" shape="6993.36,11733.45 6994.12,11732.97 6994.95,11733.29 6995.87,11734.41"/>
    </edge>
    <edge id=":1027_3" function="internal">
        <lane id=":1027_3_0" index="0" speed="5.65" length="9.26" shape="7001.37,11730.52 6998.71,11729.68 6996.91,11730.04 6995.96,11731.62 6995.87,11734.41"/>
    </edge>
    <edge id=":1027_4" function="internal">
        <lane id=":1027_4_0" index="0" speed="8.52" length="16.20" shape="7001.37,11730.52 6997.15,11727.94 6994.67,11724.95 6993.92,11721.57 6994.91,11717.78"/>
    </edge>
    <edge id=":1027_5" function="internal">
        <lane id=":1027_5_0" index="0" speed="3.65" length="1.44" shape="7001.37,11730.52 7000.62,11729.29"/>
    </edge>
    <edge id=":1027_11" function="internal">
        <lane id=":1027_11_0" index="0" speed="3.65" length="3.23" shape="7000.62,11729.29 7000.60,11728.39 7001.30,11727.84 7002.73,11727.63"/>
    </edge>
    <edge id=":1027_6" function="internal">
        <lane id=":1027_6_0" index="0" speed="7.14" length="11.07" shape="6997.81,11719.14 6997.23,11721.57 6997.86,11723.79 6999.69,11725.81 7002.73,11727.63"/>
    </edge>
    <edge id=":1027_7" function="internal">
        <lane id=":1027_7_0" index="0" speed="13.89" length="15.56" shape="6997.81,11719.14 6996.55,11722.73 6995.86,11726.61 6995.67,11730.56 6995.87,11734.41"/>
    </edge>
    <edge id=":1027_8" function="internal">
        <lane id=":1027_8_0" index="0" speed="3.65" length="1.33" shape="6997.81,11719.14 6996.68,11719.83"/>
    </edge>
    <edge id=":1027_12" function="internal">
        <lane id=":1027_12_0" index="0" speed="3.65" length="3.34" shape="6996.68,11719.83 6996.58,11719.89 6995.69,11719.91 6995.13,11719.21 6994.91,11717.78"/>
    </edge>
    <edge id=":1029_0" function="internal">
        <lane id=":1029_0_0" index="0" speed="6.69" length="3.84" shape="8320.91,15178.64 8320.16,15179.48 8319.52,15179.96 8318.77,15180.21 8317.65,15180.34"/>
    </edge>
    <edge id=":1029_1" function="internal">
        <lane id=":1029_1_0" index="0" speed="4.22" length="1.28" shape="8317.37,15177.16 8317.74,15177.11 8317.99,15177.03 8318.20,15176.87 8318.45,15176.59"/>
    </edge>
    <edge id=":1144_0" function="internal">
        <lane id=":1144_0_0" index="0" speed="9.89" length="10.57" shape="22196.93,15416.12 22194.72,15416.95 22192.72,15418.38 22190.95,15420.41 22189.38,15423.04"/>
    </edge>
    <edge id=":1144_1" function="internal">
        <lane id=":1144_1_0" index="0" speed="13.83" length="13.44" shape="22196.93,15416.12 22193.48,15416.59 22190.29,15416.36 22187.17,15415.53 22183.90,15414.19"/>
    </edge>
    <edge id=":1144_2" function="internal">
        <lane id=":1144_2_0" index="0" speed="3.65" length="1.44" shape="22196.93,15416.12 22195.58,15415.61"/>
    </edge>
    <edge id=":1144_9" function="internal">
        <lane id=":1144_9_0" index="0" speed="3.65" length="3.23" shape="22195.58,15415.61 22195.01,15414.92 22195.22,15414.05 22196.22,15413.00"/>
    </edge>
    <edge id=":1144_3" function="internal">
        <lane id=":1144_3_0" index="0" speed="12.77" length="11.41" shape="22185.24,15411.29 22188.19,15412.60 22190.60,15413.35 22193.08,15413.50 22196.22,15413.00"/>
    </edge>
    <edge id=":1144_4" function="internal">
        <lane id=":1144_4_0" index="0" speed="7.95" length="3.73" shape="22185.24,15411.29 22188.37,15413.31"/>
    </edge>
    <edge id=":1144_5" function="internal">
        <lane id=":1144_5_0" index="0" speed="3.65" length="1.44" shape="22185.24,15411.29 22186.00,15412.52"/>
    </edge>
    <edge id=":1144_10" function="internal">
        <lane id=":1144_10_0" index="0" speed="7.95" length="10.57" shape="22188.37,15413.31 22188.55,15413.43 22190.34,15416.10 22190.62,15419.30 22189.38,15423.04"/>
    </edge>
    <edge id=":1144_11" function="internal">
        <lane id=":1144_11_0" index="0" speed="3.65" length="3.23" shape="22186.00,15412.52 22186.03,15413.41 22185.33,15413.97 22183.90,15414.19"/>
    </edge>
    <edge id=":1144_6" function="internal">
        <lane id=":1144_6_0" index="0" speed="6.45" length="9.03" shape="22186.52,15421.61 22187.30,15419.25 22187.12,15417.23 22185.99,15415.54 22183.90,15414.19"/>
    </edge>
    <edge id=":1144_7" function="internal">
        <lane id=":1144_7_0" index="0" speed="11.08" length="13.40" shape="22186.52,15421.61 22188.47,15418.37 22190.73,15415.86 22193.32,15414.07 22196.22,15413.00"/>
    </edge>
    <edge id=":1144_8" function="internal">
        <lane id=":1144_8_0" index="0" speed="3.65" length="1.44" shape="22186.52,15421.61 22187.77,15420.90"/>
    </edge>
    <edge id=":1144_12" function="internal">
        <lane id=":1144_12_0" index="0" speed="3.65" length="3.23" shape="22187.77,15420.90 22188.66,15420.89 22189.20,15421.61 22189.38,15423.04"/>
    </edge>
    <edge id=":1255_0" function="internal">
        <lane id=":1255_0_0" index="0" speed="3.91" length="3.16" shape="15890.52,4496.34 15889.83,4495.76 15889.17,4495.60 15888.55,4495.88 15887.97,4496.57"/>
    </edge>
    <edge id=":1255_1" function="internal">
        <lane id=":1255_1_0" index="0" speed="6.09" length="9.48" shape="15885.25,4494.90 15886.98,4492.81 15888.83,4491.99 15890.81,4492.45 15892.89,4494.19"/>
    </edge>
    <edge id=":1257_0" function="internal">
        <lane id=":1257_0_0" index="0" speed="11.31" length="19.95" shape="22744.68,3141.15 22744.06,3136.54 22744.98,3132.08 22747.44,3127.76 22751.43,3123.60"/>
    </edge>
    <edge id=":1257_1" function="internal">
        <lane id=":1257_1_0" index="0" speed="7.93" length="6.32" shape="22744.68,3141.15 22744.16,3136.57 22744.96,3135.05"/>
    </edge>
    <edge id=":1257_2" function="internal">
        <lane id=":1257_2_0" index="0" speed="3.65" length="1.44" shape="22744.68,3141.15 22745.11,3139.77"/>
    </edge>
    <edge id=":1257_9" function="internal">
        <lane id=":1257_9_0" index="0" speed="7.93" length="11.67" shape="22744.96,3135.05 22745.77,3133.49 22749.50,3131.91 22755.36,3131.81"/>
    </edge>
    <edge id=":1257_10" function="internal">
        <lane id=":1257_10_0" index="0" speed="3.65" length="3.23" shape="22745.11,3139.77 22745.76,3139.16 22746.64,3139.32 22747.75,3140.24"/>
    </edge>
    <edge id=":1257_3" function="internal">
        <lane id=":1257_3_0" index="0" speed="6.40" length="11.24" shape="22755.05,3135.00 22751.18,3135.00 22748.67,3135.88 22747.53,3137.62 22747.75,3140.24"/>
    </edge>
    <edge id=":1257_4" function="internal">
        <lane id=":1257_4_0" index="0" speed="7.41" length="19.07" shape="22755.05,3135.00 22749.12,3133.75 22746.54,3131.43 22747.31,3128.04 22751.43,3123.60"/>
    </edge>
    <edge id=":1257_5" function="internal">
        <lane id=":1257_5_0" index="0" speed="3.65" length="1.44" shape="22755.05,3135.00 22753.93,3134.09"/>
    </edge>
    <edge id=":1257_11" function="internal">
        <lane id=":1257_11_0" index="0" speed="3.65" length="3.23" shape="22753.93,3134.09 22753.61,3133.26 22754.09,3132.50 22755.36,3131.81"/>
    </edge>
    <edge id=":1257_6" function="internal">
        <lane id=":1257_6_0" index="0" speed="5.48" length="9.68" shape="22753.52,3126.02 22751.42,3128.28 22751.03,3130.00 22752.34,3131.18 22755.36,3131.81"/>
    </edge>
    <edge id=":1257_7" function="internal">
        <lane id=":1257_7_0" index="0" speed="10.25" length="16.26" shape="22753.52,3126.02 22750.17,3129.47 22748.10,3132.99 22747.29,3136.58 22747.75,3140.24"/>
    </edge>
    <edge id=":1257_8" function="internal">
        <lane id=":1257_8_0" index="0" speed="3.65" length="1.34" shape="22753.52,3126.02 22752.19,3126.19"/>
    </edge>
    <edge id=":1257_12" function="internal">
        <lane id=":1257_12_0" index="0" speed="3.65" length="3.33" shape="22752.19,3126.19 22752.09,3126.20 22751.26,3125.85 22751.04,3124.98 22751.43,3123.60"/>
    </edge>
    <edge id=":1261_0" function="internal">
        <lane id=":1261_0_0" index="0" speed="6.32" length="4.93" shape="24051.88,5265.16 24052.68,5266.16 24053.16,5267.24 24053.33,5268.42 24053.18,5269.69"/>
    </edge>
    <edge id=":1261_1" function="internal">
        <lane id=":1261_1_0" index="0" speed="4.03" length="1.64" shape="24050.06,5268.95 24050.11,5268.53 24050.06,5268.13 24049.90,5267.77 24049.63,5267.44"/>
    </edge>
    <edge id=":1283_0" function="internal">
        <lane id=":1283_0_0" index="0" speed="6.13" length="10.30" shape="23684.68,3220.02 23687.61,3220.71 23689.22,3222.12 23689.50,3224.24 23688.46,3227.06"/>
    </edge>
    <edge id=":1283_1" function="internal">
        <lane id=":1283_1_0" index="0" speed="3.93" length="3.43" shape="23685.64,3225.55 23685.99,3224.61 23685.89,3223.90 23685.36,3223.43 23684.38,3223.20"/>
    </edge>
    <edge id=":1285_0" function="internal">
        <lane id=":1285_0_0" index="0" speed="6.09" length="9.35" shape="19313.29,4814.17 19310.63,4813.95 19308.91,4812.91 19308.14,4811.06 19308.31,4808.39"/>
    </edge>
    <edge id=":1285_1" function="internal">
        <lane id=":1285_1_0" index="0" speed="3.91" length="3.12" shape="19311.45,4809.05 19311.39,4809.94 19311.65,4810.56 19312.22,4810.90 19313.11,4810.98"/>
    </edge>
    <edge id=":1291_0" function="internal">
        <lane id=":1291_0_0" index="0" speed="13.39" length="18.30" shape="18237.25,5820.18 18233.63,5816.78 18230.96,5813.08 18229.24,5809.06 18228.47,5804.74"/>
    </edge>
    <edge id=":1291_1" function="internal">
        <lane id=":1291_1_0" index="0" speed="7.39" length="6.23" shape="18237.25,5820.18 18233.66,5816.49 18233.39,5815.44"/>
    </edge>
    <edge id=":1291_2" function="internal">
        <lane id=":1291_2_0" index="0" speed="3.65" length="1.44" shape="18237.25,5820.18 18236.81,5818.81"/>
    </edge>
    <edge id=":1291_9" function="internal">
        <lane id=":1291_9_0" index="0" speed="7.39" length="10.80" shape="18233.39,5815.44 18232.80,5813.24 18234.65,5810.43 18239.23,5808.06"/>
    </edge>
    <edge id=":1291_10" function="internal">
        <lane id=":1291_10_0" index="0" speed="3.65" length="3.23" shape="18236.81,5818.81 18236.99,5817.93 18237.80,5817.55 18239.24,5817.67"/>
    </edge>
    <edge id=":1291_3" function="internal">
        <lane id=":1291_3_0" index="0" speed="5.64" length="9.28" shape="18240.31,5811.07 18237.82,5812.36 18236.81,5813.89 18237.28,5815.66 18239.24,5817.67"/>
    </edge>
    <edge id=":1291_4" function="internal">
        <lane id=":1291_4_0" index="0" speed="7.84" length="16.52" shape="18240.31,5811.07 18235.38,5812.19 18231.77,5811.51 18229.46,5809.02 18228.47,5804.74"/>
    </edge>
    <edge id=":1291_5" function="internal">
        <lane id=":1291_5_0" index="0" speed="3.65" length="1.44" shape="18240.31,5811.07 18238.91,5810.73"/>
    </edge>
    <edge id=":1291_11" function="internal">
        <lane id=":1291_11_0" index="0" speed="3.65" length="3.23" shape="18238.91,5810.73 18238.27,5810.11 18238.37,5809.22 18239.23,5808.06"/>
    </edge>
    <edge id=":1291_6" function="internal">
        <lane id=":1291_6_0" index="0" speed="6.31" length="10.22" shape="18231.66,5804.53 18232.28,5807.05 18233.75,5808.47 18236.07,5808.81 18239.23,5808.06"/>
    </edge>
    <edge id=":1291_7" function="internal">
        <lane id=":1291_7_0" index="0" speed="12.40" length="15.62" shape="18231.66,5804.53 18232.32,5808.18 18233.80,5811.58 18236.11,5814.75 18239.24,5817.67"/>
    </edge>
    <edge id=":1291_8" function="internal">
        <lane id=":1291_8_0" index="0" speed="3.65" length="1.33" shape="18231.66,5804.53 18231.00,5805.68"/>
    </edge>
    <edge id=":1291_12" function="internal">
        <lane id=":1291_12_0" index="0" speed="3.65" length="3.35" shape="18231.00,5805.68 18230.94,5805.78 18230.17,5806.23 18229.34,5805.89 18228.47,5804.74"/>
    </edge>
    <edge id=":1295_0" function="internal">
        <lane id=":1295_0_0" index="0" speed="5.50" length="9.61" shape="18861.85,3387.61 18860.77,3384.77 18859.40,3383.66 18857.73,3384.26 18855.78,3386.58"/>
    </edge>
    <edge id=":1295_1" function="internal">
        <lane id=":1295_1_0" index="0" speed="8.78" length="17.58" shape="18861.85,3387.61 18861.01,3382.02 18861.64,3377.74 18863.76,3374.78 18867.35,3373.12"/>
    </edge>
    <edge id=":1295_2" function="internal">
        <lane id=":1295_2_0" index="0" speed="3.65" length="1.44" shape="18861.85,3387.61 18862.33,3386.25"/>
    </edge>
    <edge id=":1295_9" function="internal">
        <lane id=":1295_9_0" index="0" speed="3.65" length="3.23" shape="18862.33,3386.25 18863.01,3385.66 18863.88,3385.85 18864.95,3386.82"/>
    </edge>
    <edge id=":1295_3" function="internal">
        <lane id=":1295_3_0" index="0" speed="7.46" length="12.39" shape="18868.08,3376.23 18865.82,3377.37 18864.55,3379.52 18864.26,3382.66 18864.95,3386.82"/>
    </edge>
    <edge id=":1295_4" function="internal">
        <lane id=":1295_4_0" index="0" speed="13.62" length="16.39" shape="18868.08,3376.23 18864.49,3377.74 18861.13,3380.27 18858.18,3383.36 18855.78,3386.58"/>
    </edge>
    <edge id=":1295_5" function="internal">
        <lane id=":1295_5_0" index="0" speed="3.65" length="1.26" shape="18868.08,3376.23 18866.89,3375.79"/>
    </edge>
    <edge id=":1295_10" function="internal">
        <lane id=":1295_10_0" index="0" speed="3.65" length="3.41" shape="18866.89,3375.79 18866.73,3375.72 18866.16,3375.04 18866.36,3374.17 18867.35,3373.12"/>
    </edge>
    <edge id=":1295_6" function="internal">
        <lane id=":1295_6_0" index="0" speed="13.89" length="18.72" shape="18853.11,3384.82 18855.81,3381.39 18859.44,3377.83 18863.46,3374.83 18867.35,3373.12"/>
    </edge>
    <edge id=":1295_7" function="internal">
        <lane id=":1295_7_0" index="0" speed="7.40" length="6.84" shape="18853.11,3384.82 18856.92,3380.29 18857.79,3379.98"/>
    </edge>
    <edge id=":1295_8" function="internal">
        <lane id=":1295_8_0" index="0" speed="3.65" length="1.44" shape="18853.11,3384.82 18854.44,3384.26"/>
    </edge>
    <edge id=":1295_11" function="internal">
        <lane id=":1295_11_0" index="0" speed="7.40" length="11.90" shape="18857.79,3379.98 18860.16,3379.12 18862.84,3381.29 18864.95,3386.82"/>
    </edge>
    <edge id=":1295_12" function="internal">
        <lane id=":1295_12_0" index="0" speed="3.65" length="3.23" shape="18854.44,3384.26 18855.32,3384.36 18855.77,3385.14 18855.78,3386.58"/>
    </edge>
    <edge id=":1301_0" function="internal">
        <lane id=":1301_0_0" index="0" speed="6.43" length="13.84" shape="19489.11,6800.15 19488.96,6804.53 19487.62,6806.68 19485.08,6806.60 19481.35,6804.30"/>
    </edge>
    <edge id=":1301_1" function="internal">
        <lane id=":1301_1_0" index="0" speed="4.09" length="4.61" shape="19483.34,6801.79 19484.58,6802.56 19485.42,6802.58 19485.87,6801.86 19485.92,6800.40"/>
    </edge>
    <edge id=":1310_0" function="internal">
        <lane id=":1310_0_0" index="0" speed="13.89" length="0.24" shape="7753.60,12083.81 7753.54,12083.77 7753.50,12083.75 7753.45,12083.72 7753.39,12083.69"/>
    </edge>
    <edge id=":1310_1" function="internal">