<?xml version="1.0" encoding="UTF-8"?>

<!-- generated on 2025-04-13 03:47:21 by Eclipse SUMO netgenerate Version 1.22.0
<netgenerateConfiguration xmlns:xsi="http://www.w3.org/2001/XMLSchema-instance" xsi:noNamespaceSchemaLocation="http://sumo.dlr.de/xsd/netgenerateConfiguration.xsd">

    <random_network>
        <rand value="true"/>
        <rand.iterations value="8"/>
        <rand.max-distance value="1459.0786938123172"/>
        <rand.min-distance value="150.0"/>
        <rand.min-angle value="46.971451774277654"/>
        <rand.neighbor-dist1 value="3.0"/>
        <rand.neighbor-dist2 value="1.0"/>
        <rand.neighbor-dist3 value="0.0"/>
        <rand.neighbor-dist4 value="5.0"/>
        <rand.neighbor-dist5 value="0.0"/>
        <rand.neighbor-dist6 value="0.0"/>
    </random_network>

    <output>
        <output-file value="configs/rand-configs/rand3.net.xml"/>
    </output>

    <tls_building>
        <tls.guess value="true"/>
        <tls.guess.threshold value="0"/>
    </tls_building>

</netgenerateConfiguration>
-->

<net version="1.20" junctionCornerDetail="5" limitTurnSpeed="5.50" xmlns:xsi="http://www.w3.org/2001/XMLSchema-instance" xsi:noNamespaceSchemaLocation="http://sumo.dlr.de/xsd/net_file.xsd">

    <location netOffset="726.09,1280.02" convBoundary="0.00,0.00,2851.89,2402.86" origBoundary="-726.09,-1280.02,2125.80,1122.84" projParameter="!"/>

    <edge id=":1_0" function="internal">
        <lane id=":1_0_0" index="0" speed="5.98" length="9.08" shape="724.62,1288.31 724.21,1285.74 723.08,1284.17 721.23,1283.58 718.66,1284.00"/>
    </edge>
    <edge id=":1_1" function="internal">
        <lane id=":1_1_0" index="0" speed="13.89" length="14.86" shape="724.62,1288.31 724.48,1284.59 724.17,1280.90 723.65,1277.23 722.90,1273.58"/>
    </edge>
    <edge id=":1_2" function="internal">
        <lane id=":1_2_0" index="0" speed="8.09" length="4.36" shape="724.62,1288.31 725.12,1283.98"/>
    </edge>
    <edge id=":1_3" function="internal">
        <lane id=":1_3_0" index="0" speed="3.65" length="1.44" shape="724.62,1288.31 725.40,1287.10"/>
    </edge>
    <edge id=":1_16" function="internal">
        <lane id=":1_16_0" index="0" speed="8.09" length="10.76" shape="725.12,1283.98 726.77,1280.93 729.57,1279.17 733.52,1278.70"/>
    </edge>
    <edge id=":1_17" function="internal">
        <lane id=":1_17_0" index="0" speed="3.65" length="3.23" shape="725.40,1287.10 726.20,1286.69 727.00,1287.07 727.82,1288.26"/>
    </edge>
    <edge id=":1_4" function="internal">
        <lane id=":1_4_0" index="0" speed="6.62" length="9.76" shape="733.40,1281.89 730.92,1282.21 729.16,1283.38 728.13,1285.40 727.82,1288.26"/>
    </edge>
    <edge id=":1_5" function="internal">
        <lane id=":1_5_0" index="0" speed="13.89" length="14.95" shape="733.40,1281.89 729.66,1281.93 725.95,1282.32 722.28,1283.02 718.66,1284.00"/>
    </edge>
    <edge id=":1_6" function="internal">
        <lane id=":1_6_0" index="0" speed="9.03" length="3.93" shape="733.40,1281.89 729.53,1281.25"/>
    </edge>
    <edge id=":1_7" function="internal">
        <lane id=":1_7_0" index="0" speed="3.65" length="1.44" shape="733.40,1281.89 732.23,1281.05"/>
    </edge>
    <edge id=":1_18" function="internal">
        <lane id=":1_18_0" index="0" speed="9.03" length="10.59" shape="729.53,1281.25 726.48,1279.65 724.28,1277.10 722.90,1273.58"/>
    </edge>
    <edge id=":1_19" function="internal">
        <lane id=":1_19_0" index="0" speed="3.65" length="3.23" shape="732.23,1281.05 731.86,1280.23 732.29,1279.45 733.52,1278.70"/>
    </edge>
    <edge id=":1_8" function="internal">
        <lane id=":1_8_0" index="0" speed="7.70" length="10.32" shape="726.01,1272.84 726.99,1275.31 728.57,1277.11 730.74,1278.24 733.52,1278.70"/>
    </edge>
    <edge id=":1_9" function="internal">
        <lane id=":1_9_0" index="0" speed="13.89" length="15.56" shape="726.01,1272.84 726.78,1276.60 727.32,1280.50 727.67,1284.43 727.82,1288.26"/>
    </edge>
    <edge id=":1_10" function="internal">
        <lane id=":1_10_0" index="0" speed="8.41" length="4.08" shape="726.01,1272.84 726.30,1276.63 726.20,1276.89"/>
    </edge>
    <edge id=":1_11" function="internal">
        <lane id=":1_11_0" index="0" speed="3.65" length="1.44" shape="726.01,1272.84 725.51,1274.19"/>
    </edge>
    <edge id=":1_20" function="internal">
        <lane id=":1_20_0" index="0" speed="8.41" length="10.92" shape="726.20,1276.89 725.17,1279.76 722.62,1282.21 718.66,1284.00"/>
    </edge>
    <edge id=":1_21" function="internal">
        <lane id=":1_21_0" index="0" speed="3.65" length="3.23" shape="725.51,1274.19 724.83,1274.77 723.96,1274.56 722.90,1273.58"/>
    </edge>
    <edge id=":1_12" function="internal">
        <lane id=":1_12_0" index="0" speed="7.00" length="10.09" shape="717.72,1280.94 720.47,1279.73 722.25,1278.10 723.06,1276.05 722.90,1273.58"/>
    </edge>
    <edge id=":1_13" function="internal">
        <lane id=":1_13_0" index="0" speed="13.89" length="16.03" shape="717.72,1280.94 721.50,1279.94 725.54,1279.19 729.62,1278.76 733.52,1278.70"/>
    </edge>
    <edge id=":1_14" function="internal">
        <lane id=":1_14_0" index="0" speed="7.59" length="4.78" shape="717.72,1280.94 722.07,1280.24 722.42,1280.35"/>
    </edge>
    <edge id=":1_15" function="internal">
        <lane id=":1_15_0" index="0" speed="3.65" length="1.44" shape="717.72,1280.94 719.10,1281.35"/>
    </edge>
    <edge id=":1_22" function="internal">
        <lane id=":1_22_0" index="0" speed="7.59" length="10.63" shape="722.42,1280.35 725.21,1281.23 727.13,1283.90 727.82,1288.26"/>
    </edge>
    <edge id=":1_23" function="internal">
        <lane id=":1_23_0" index="0" speed="3.65" length="3.23" shape="719.10,1281.35 719.72,1281.99 719.57,1282.88 718.66,1284.00"/>
    </edge>
    <edge id=":10_0" function="internal">
        <lane id=":10_0_0" index="0" speed="3.65" length="4.67" shape="0.47,1506.86 -0.91,1506.45 -1.53,1505.81 -1.38,1504.92 -0.47,1503.80"/>
    </edge>
    <edge id=":12_0" function="internal">
        <lane id=":12_0_0" index="0" speed="3.65" length="4.67" shape="880.45,181.95 881.27,183.14 881.34,184.03 880.67,184.62 879.26,184.92"/>
    </edge>
    <edge id=":15_0" function="internal">
        <lane id=":15_0_0" index="0" speed="3.65" length="4.67" shape="2852.34,1620.20 2853.26,1621.31 2853.42,1622.20 2852.81,1622.85 2851.43,1623.27"/>
    </edge>
    <edge id=":19_0" function="internal">
        <lane id=":19_0_0" index="0" speed="3.65" length="4.67" shape="2784.89,523.97 2786.33,523.80 2787.15,524.15 2787.36,525.02 2786.97,526.41"/>
    </edge>
    <edge id=":2_0" function="internal">
        <lane id=":2_0_0" index="0" speed="6.27" length="12.23" shape="418.62,6.38 418.21,2.65 419.14,0.48 421.43,-0.14 425.06,0.79"/>
    </edge>
    <edge id=":2_1" function="internal">
        <lane id=":2_1_0" index="0" speed="4.01" length="4.08" shape="423.87,3.77 422.66,3.46 421.90,3.66 421.59,4.39 421.73,5.63"/>
    </edge>
    <edge id=":6_0" function="internal">
        <lane id=":6_0_0" index="0" speed="3.65" length="4.67" shape="745.33,2402.83 744.54,2404.05 743.75,2404.46 742.95,2404.07 742.13,2402.88"/>
    </edge>
    <edge id=":8_0" function="internal">
        <lane id=":8_0_0" index="0" speed="13.89" length="14.66" shape="1859.71,1327.04 1856.16,1326.00 1852.63,1325.10 1849.07,1324.42 1845.40,1324.08"/>
    </edge>
    <edge id=":8_1" function="internal">
        <lane id=":8_1_0" index="0" speed="7.39" length="4.88" shape="1859.71,1327.04 1855.26,1325.06"/>
    </edge>
    <edge id=":8_2" function="internal">
        <lane id=":8_2_0" index="0" speed="3.65" length="1.44" shape="1859.71,1327.04 1858.79,1325.93"/>
    </edge>
    <edge id=":8_9" function="internal">
        <lane id=":8_9_0" index="0" speed="7.39" length="12.30" shape="1855.26,1325.06 1854.95,1324.92 1852.94,1322.21 1853.68,1318.92 1857.18,1315.05"/>
    </edge>
    <edge id=":8_10" function="internal">
        <lane id=":8_10_0" index="0" speed="3.65" length="3.23" shape="1858.79,1325.93 1858.64,1325.05 1859.25,1324.40 1860.63,1323.98"/>
    </edge>
    <edge id=":8_3" function="internal">
        <lane id=":8_3_0" index="0" speed="5.62" length="9.30" shape="1859.26,1317.49 1857.36,1319.58 1856.96,1321.36 1858.05,1322.83 1860.63,1323.98"/>
    </edge>
    <edge id=":8_4" function="internal">
        <lane id=":8_4_0" index="0" speed="13.53" length="15.67" shape="1859.26,1317.49 1856.19,1319.91 1852.78,1322.07 1849.14,1323.59 1845.40,1324.08"/>
    </edge>
    <edge id=":8_5" function="internal">
        <lane id=":8_5_0" index="0" speed="3.65" length="1.44" shape="1859.26,1317.49 1857.83,1317.66"/>
    </edge>
    <edge id=":8_11" function="internal">
        <lane id=":8_11_0" index="0" speed="3.65" length="3.23" shape="1857.83,1317.66 1857.00,1317.31 1856.79,1316.44 1857.18,1315.05"/>
    </edge>
    <edge id=":8_6" function="internal">
        <lane id=":8_6_0" index="0" speed="12.54" length="13.40" shape="1845.52,1320.88 1848.91,1320.51 1851.80,1319.25 1854.46,1317.36 1857.18,1315.05"/>
    </edge>
    <edge id=":8_7" function="internal">
        <lane id=":8_7_0" index="0" speed="13.89" length="15.46" shape="1845.52,1320.88 1849.31,1321.24 1853.15,1321.96 1856.95,1322.92 1860.63,1323.98"/>
    </edge>
    <edge id=":8_8" function="internal">
        <lane id=":8_8_0" index="0" speed="3.65" length="1.44" shape="1845.52,1320.88 1846.69,1321.73"/>
    </edge>
    <edge id=":8_12" function="internal">
        <lane id=":8_12_0" index="0" speed="3.65" length="3.23" shape="1846.69,1321.73 1847.06,1322.54 1846.63,1323.33 1845.40,1324.08"/>
    </edge>

    <edge id="-11" from="10" to="1" priority="-1">
        <lane id="-11_0" index="0" speed="13.89" length="751.97" shape="-0.47,1503.80 717.72,1280.94"/>
    </edge>
    <edge id="-13" from="12" to="2" priority="-1">
        <lane id="-13_0" index="0" speed="13.89" length="490.10" shape="879.26,184.92 423.87,3.77"/>
    </edge>
    <edge id="-16" from="15" to="8" priority="-1">
        <lane id="-16_0" index="0" speed="13.89" length="1035.01" shape="2851.43,1623.27 1859.71,1327.04"/>
    </edge>
    <edge id="-20" from="19" to="8" priority="-1">
        <lane id="-20_0" index="0" speed="13.89" length="1219.20" shape="2786.97,526.41 1859.26,1317.49"/>
    </edge>
    <edge id="-3" from="2" to="1" priority="-1">
        <lane id="-3_0" index="0" speed="13.89" length="1303.23" shape="421.73,5.63 726.01,1272.84"/>
    </edge>
    <edge id="-7" from="6" to="1" priority="-1">
        <lane id="-7_0" index="0" speed="13.89" length="1114.71" shape="742.13,2402.88 724.62,1288.31"/>
    </edge>
    <edge id="-9" from="8" to="1" priority="-1">
        <lane id="-9_0" index="0" speed="13.89" length="1112.80" shape="1845.40,1324.08 733.40,1281.89"/>
    </edge>
    <edge id="11" from="1" to="10" priority="-1">
        <lane id="11_0" index="0" speed="13.89" length="751.97" shape="718.66,1284.00 0.47,1506.86"/>
    </edge>
    <edge id="13" from="2" to="12" priority="-1">
        <lane id="13_0" index="0" speed="13.89" length="490.10" shape="425.06,0.79 880.45,181.95"/>
    </edge>
    <edge id="16" from="8" to="15" priority="-1">
        <lane id="16_0" index="0" speed="13.89" length="1035.01" shape="1860.63,1323.98 2852.34,1620.20"/>
    </edge>
    <edge id="20" from="8" to="19" priority="-1">
        <lane id="20_0" index="0" speed="13.89" length="1219.20" shape="1857.18,1315.05 2784.89,523.97"/>
    </edge>
    <edge id="3" from="1" to="2" priority="-1">
        <lane id="3_0" index="0" speed="13.89" length="1303.23" shape="722.90,1273.58 418.62,6.38"/>
    </edge>
    <edge id="7" from="1" to="6" priority="-1">
        <lane id="7_0" index="0" speed="13.89" length="1114.71" shape="727.82,1288.26 745.33,2402.83"/>
    </edge>
    <edge id="9" from="1" to="8" priority="-1">
        <lane id="9_0" index="0" speed="13.89" length="1112.80" shape="733.52,1278.70 1845.52,1320.88"/>
    </edge>

    <tlLogic id="1" type="static" programID="0" offset="0">
        <phase duration="42" state="GGggrrrrGGggrrrr"/>
        <phase duration="3"  state="yyyyrrrryyyyrrrr"/>
        <phase duration="42" state="rrrrGGggrrrrGGgg"/>
        <phase duration="3"  state="rrrryyyyrrrryyyy"/>
    </tlLogic>
    <tlLogic id="8" type="static" programID="0" offset="0">
        <phase duration="42" state="GggrrrGGg"/>
        <phase duration="3"  state="yyyrrrGyy"/>
        <phase duration="42" state="rrrGGgGrr"/>
        <phase duration="3"  state="rrryyyGrr"/>
    </tlLogic>

    <junction id="1" type="traffic_light" x="726.09" y="1280.02" incLanes="-7_0 -9_0 -3_0 -11_0" intLanes=":1_0_0 :1_1_0 :1_16_0 :1_17_0 :1_4_0 :1_5_0 :1_18_0 :1_19_0 :1_8_0 :1_9_0 :1_20_0 :1_21_0 :1_12_0 :1_13_0 :1_22_0 :1_23_0" shape="723.02,1288.34 729.42,1288.24 729.82,1285.53 730.36,1284.60 731.13,1283.95 732.12,1283.58 733.34,1283.49 733.58,1277.10 730.72,1276.50 729.61,1275.85 728.71,1274.95 728.03,1273.83 727.57,1272.46 721.35,1273.96 721.30,1276.29 720.79,1277.27 719.94,1278.11 718.75,1278.83 717.24,1279.41 719.14,1285.52 721.27,1285.31 722.02,1285.63 722.56,1286.25 722.90,1287.15">
        <request index="0"  response="0000000000000000" foes="1000010000100000" cont="0"/>
        <request index="1"  response="0100000001000000" foes="0111110001100000" cont="0"/>
        <request index="2"  response="0100001101000000" foes="0110011111100000" cont="1"/>
        <request index="3"  response="0100001000010000" foes="0100001000010000" cont="1"/>
        <request index="4"  response="0000001000000000" foes="0100001000001000" cont="0"/>
        <request index="5"  response="0000011000000111" foes="1100011000000111" cont="0"/>
        <request index="6"  response="0011011000000110" foes="0111111000000110" cont="1"/>
        <request index="7"  response="0010000100000100" foes="0010000100000100" cont="1"/>
        <request index="8"  response="0000000000000000" foes="0010000010000100" cont="0"/>
        <request index="9"  response="0100000001000000" foes="0110000001111100" cont="0"/>
        <request index="10" response="0100000001000111" foes="1110000001100111" cont="1"/>
        <request index="11" response="0001000001000010" foes="0001000001000010" cont="1"/>
        <request index="12" response="0000000000000010" foes="0000100001000010" cont="0"/>
        <request index="13" response="0000011100000110" foes="0000011111000110" cont="0"/>
        <request index="14" response="0000011001110110" foes="0000011001111110" cont="1"/>
        <request index="15" response="0000010000100001" foes="0000010000100001" cont="1"/>
    </junction>
    <junction id="10" type="priority" x="0.00" y="1505.33" incLanes="11_0" intLanes=":10_0_0" shape="0.00,1505.33 0.95,1508.39 0.00,1505.33">
        <request index="0" response="0" foes="0" cont="0"/>
    </junction>
    <junction id="12" type="priority" x="879.86" y="183.44" incLanes="13_0" intLanes=":12_0_0" shape="879.86,183.44 881.04,180.46 879.86,183.44">
        <request index="0" response="0" foes="0" cont="0"/>
    </junction>
    <junction id="15" type="priority" x="2851.89" y="1621.74" incLanes="16_0" intLanes=":15_0_0" shape="2851.89,1621.74 2852.80,1618.67 2851.89,1621.74">
        <request index="0" response="0" foes="0" cont="0"/>
    </junction>
    <junction id="19" type="priority" x="2785.93" y="525.19" incLanes="20_0" intLanes=":19_0_0" shape="2785.93,525.19 2783.86,522.75 2785.93,525.19">
        <request index="0" response="0" foes="0" cont="0"/>
    </junction>
    <junction id="2" type="priority" x="418.73" y="0.00" incLanes="3_0 -13_0" intLanes=":2_0_0 :2_1_0" shape="417.06,6.75 423.28,5.25 425.65,-0.69 422.22,-1.75 419.60,-1.89 417.77,-1.11 416.73,0.59 416.50,3.21">
        <request index="0" response="00" foes="00" cont="0"/>
        <request index="1" response="00" foes="00" cont="0"/>
    </junction>
    <junction id="6" type="priority" x="743.73" y="2402.86" incLanes="7_0" intLanes=":6_0_0" shape="743.73,2402.86 746.93,2402.81 743.73,2402.86">
        <request index="0" response="0" foes="0" cont="0"/>
    </junction>
    <junction id="8" type="traffic_light" x="1850.70" y="1322.68" incLanes="-16_0 -20_0 9_0" intLanes=":8_0_0 :8_9_0 :8_10_0 :8_3_0 :8_4_0 :8_11_0 :8_6_0 :8_7_0 :8_12_0" shape="1859.26,1328.58 1861.09,1322.44 1859.30,1321.52 1858.97,1320.94 1859.03,1320.27 1859.47,1319.53 1860.30,1318.70 1856.15,1313.83 1854.20,1315.59 1852.72,1317.01 1851.39,1318.09 1849.95,1318.83 1848.11,1319.23 1845.58,1319.28 1845.34,1325.68 1848.36,1325.85 1850.59,1326.10 1852.41,1326.47 1854.20,1326.98 1856.35,1327.67">
        <request index="0" response="000000000" foes="100010000" cont="0"/>
        <request index="1" response="011000000" foes="011110000" cont="1"/>
        <request index="2" response="010001000" foes="010001000" cont="1"/>
        <request index="3" response="010000000" foes="010000100" cont="0"/>
        <request index="4" response="010000011" foes="110000011" cont="0"/>
        <request index="5" response="001000010" foes="001000010" cont="1"/>
        <request index="6" response="000000000" foes="000100010" cont="0"/>
        <request index="7" response="000000000" foes="000011110" cont="0"/>
        <request index="8" response="000010001" foes="000010001" cont="1"/>
    </junction>

    <junction id=":1_16_0" type="internal" x="725.12" y="1283.98" incLanes=":1_2_0 -3_0" intLanes=":1_5_0 :1_6_0 :1_7_0 :1_8_0 :1_9_0 :1_13_0 :1_14_0"/>
    <junction id=":1_17_0" type="internal" x="725.40" y="1287.10" incLanes=":1_3_0 -11_0 -3_0 -9_0" intLanes=":1_4_0 :1_9_0 :1_14_0"/>
    <junction id=":1_18_0" type="internal" x="729.53" y="1281.25" incLanes=":1_6_0 -11_0" intLanes=":1_1_0 :1_2_0 :1_9_0 :1_10_0 :1_11_0 :1_12_0 :1_13_0"/>
    <junction id=":1_19_0" type="internal" x="732.23" y="1281.05" incLanes=":1_7_0 -11_0 -3_0 -7_0" intLanes=":1_2_0 :1_8_0 :1_13_0"/>
    <junction id=":1_20_0" type="internal" x="726.20" y="1276.89" incLanes=":1_10_0 -7_0" intLanes=":1_0_0 :1_1_0 :1_5_0 :1_6_0 :1_13_0 :1_14_0 :1_15_0"/>
    <junction id=":1_21_0" type="internal" x="725.51" y="1274.19" incLanes=":1_11_0 -11_0 -7_0 -9_0" intLanes=":1_1_0 :1_6_0 :1_12_0"/>
    <junction id=":1_22_0" type="internal" x="722.42" y="1280.35" incLanes=":1_14_0 -9_0" intLanes=":1_1_0 :1_2_0 :1_3_0 :1_4_0 :1_5_0 :1_9_0 :1_10_0"/>
    <junction id=":1_23_0" type="internal" x="719.10" y="1281.35" incLanes=":1_15_0 -3_0 -7_0 -9_0" intLanes=":1_0_0 :1_5_0 :1_10_0"/>
    <junction id=":8_9_0" type="internal" x="1855.26" y="1325.06" incLanes=":8_1_0 9_0" intLanes=":8_4_0 :8_5_0 :8_6_0 :8_7_0"/>
    <junction id=":8_10_0" type="internal" x="1858.79" y="1325.93" incLanes=":8_2_0 -20_0 9_0" intLanes=":8_3_0 :8_7_0"/>
    <junction id=":8_11_0" type="internal" x="1857.83" y="1317.66" incLanes=":8_5_0 -16_0 9_0" intLanes=":8_1_0 :8_6_0"/>
    <junction id=":8_12_0" type="internal" x="1846.69" y="1321.73" incLanes=":8_8_0 -16_0 -20_0" intLanes=":8_0_0 :8_4_0"/>

    <connection from="-11" to="3" fromLane="0" toLane="0" via=":1_12_0" tl="1" linkIndex="12" dir="r" state="o"/>
    <connection from="-11" to="9" fromLane="0" toLane="0" via=":1_13_0" tl="1" linkIndex="13" dir="s" state="o"/>
    <connection from="-11" to="7" fromLane="0" toLane="0" via=":1_14_0" tl="1" linkIndex="14" dir="l" state="o"/>
    <connection from="-11" to="11" fromLane="0" toLane="0" via=":1_15_0" tl="1" linkIndex="15" dir="t" state="o"/>
    <connection from="-13" to="-3" fromLane="0" toLane="0" via=":2_1_0" dir="r" state="M"/>
    <connection from="-16" to="-9" fromLane="0" toLane="0" via=":8_0_0" tl="8" linkIndex="0" dir="s" state="O"/>
    <connection from="-16" to="20" fromLane="0" toLane="0" via=":8_1_0" tl="8" linkIndex="1" dir="l" state="o"/>
    <connection from="-16" to="16" fromLane="0" toLane="0" via=":8_2_0" tl="8" linkIndex="2" dir="t" state="o"/>
    <connection from="-20" to="16" fromLane="0" toLane="0" via=":8_3_0" tl="8" linkIndex="3" dir="r" state="o"/>
    <connection from="-20" to="-9" fromLane="0" toLane="0" via=":8_4_0" tl="8" linkIndex="4" dir="s" state="o"/>
    <connection from="-20" to="20" fromLane="0" toLane="0" via=":8_5_0" tl="8" linkIndex="5" dir="t" state="o"/>
    <connection from="-3" to="9" fromLane="0" toLane="0" via=":1_8_0" tl="1" linkIndex="8" dir="r" state="O"/>
    <connection from="-3" to="7" fromLane="0" toLane="0" via=":1_9_0" tl="1" linkIndex="9" dir="s" state="O"/>
    <connection from="-3" to="11" fromLane="0" toLane="0" via=":1_10_0" tl="1" linkIndex="10" dir="l" state="o"/>
    <connection from="-3" to="3" fromLane="0" toLane="0" via=":1_11_0" tl="1" linkIndex="11" dir="t" state="o"/>
    <connection from="-7" to="11" fromLane="0" toLane="0" via=":1_0_0" tl="1" linkIndex="0" dir="r" state="O"/>
    <connection from="-7" to="3" fromLane="0" toLane="0" via=":1_1_0" tl="1" linkIndex="1" dir="s" state="O"/>
    <connection from="-7" to="9" fromLane="0" toLane="0" via=":1_2_0" tl="1" linkIndex="2" dir="l" state="o"/>
    <connection from="-7" to="7" fromLane="0" toLane="0" via=":1_3_0" tl="1" linkIndex="3" dir="t" state="o"/>
    <connection from="-9" to="7" fromLane="0" toLane="0" via=":1_4_0" tl="1" linkIndex="4" dir="r" state="o"/>
    <connection from="-9" to="11" fromLane="0" toLane="0" via=":1_5_0" tl="1" linkIndex="5" dir="s" state="o"/>
    <connection from="-9" to="3" fromLane="0" toLane="0" via=":1_6_0" tl="1" linkIndex="6" dir="l" state="o"/>
    <connection from="-9" to="9" fromLane="0" toLane="0" via=":1_7_0" tl="1" linkIndex="7" dir="t" state="o"/>
    <connection from="11" to="-11" fromLane="0" toLane="0" via=":10_0_0" dir="t" state="M"/>
    <connection from="13" to="-13" fromLane="0" toLane="0" via=":12_0_0" dir="t" state="M"/>
    <connection from="16" to="-16" fromLane="0" toLane="0" via=":15_0_0" dir="t" state="M"/>
    <connection from="20" to="-20" fromLane="0" toLane="0" via=":19_0_0" dir="t" state="M"/>
    <connection from="3" to="13" fromLane="0" toLane="0" via=":2_0_0" dir="l" state="M"/>
    <connection from="7" to="-7" fromLane="0" toLane="0" via=":6_0_0" dir="t" state="M"/>
    <connection from="9" to="20" fromLane="0" toLane="0" via=":8_6_0" tl="8" linkIndex="6" dir="R" state="O"/>
    <connection from="9" to="16" fromLane="0" toLane="0" via=":8_7_0" tl="8" linkIndex="7" dir="s" state="O"/>
    <connection from="9" to="-9" fromLane="0" toLane="0" via=":8_8_0" tl="8" linkIndex="8" dir="t" state="o"/>

    <connection from=":1_0" to="11" fromLane="0" toLane="0" dir="r" state="M"/>
    <connection from=":1_1" to="3" fromLane="0" toLane="0" dir="s" state="M"/>
    <connection from=":1_2" to="9" fromLane="0" toLane="0" via=":1_16_0" dir="l" state="m"/>
    <connection from=":1_16" to="9" fromLane="0" toLane="0" dir="l" state="M"/>
    <connection from=":1_3" to="7" fromLane="0" toLane="0" via=":1_17_0" dir="t" state="m"/>
    <connection from=":1_17" to="7" fromLane="0" toLane="0" dir="t" state="M"/>
    <connection from=":1_4" to="7" fromLane="0" toLane="0" dir="r" state="M"/>
    <connection from=":1_5" to="11" fromLane="0" toLane="0" dir="s" state="M"/>
    <connection from=":1_6" to="3" fromLane="0" toLane="0" via=":1_18_0" dir="l" state="m"/>
    <connection from=":1_18" to="3" fromLane="0" toLane="0" dir="l" state="M"/>
    <connection from=":1_7" to="9" fromLane="0" toLane="0" via=":1_19_0" dir="t" state="m"/>
    <connection from=":1_19" to="9" fromLane="0" toLane="0" dir="t" state="M"/>
    <connection from=":1_8" to="9" fromLane="0" toLane="0" dir="r" state="M"/>
    <connection from=":1_9" to="7" fromLane="0" toLane="0" dir="s" state="M"/>
    <connection from=":1_10" to="11" fromLane="0" toLane="0" via=":1_20_0" dir="l" state="m"/>
    <connection from=":1_20" to="11" fromLane="0" toLane="0" dir="l" state="M"/>
    <connection from=":1_11" to="3" fromLane="0" toLane="0" via=":1_21_0" dir="t" state="m"/>
    <connection from=":1_21" to="3" fromLane="0" toLane="0" dir="t" state="M"/>
    <connection from=":1_12" to="3" fromLane="0" toLane="0" dir="r" state="M"/>
    <connection from=":1_13" to="9" fromLane="0" toLane="0" dir="s" state="M"/>
    <connection from=":1_14" to="7" fromLane="0" toLane="0" via=":1_22_0" dir="l" state="m"/>
    <connection from=":1_22" to="7" fromLane="0" toLane="0" dir="l" state="M"/>
    <connection from=":1_15" to="11" fromLane="0" toLane="0" via=":1_23_0" dir="t" state="m"/>
    <connection from=":1_23" to="11" fromLane="0" toLane="0" dir="t" state="M"/>
    <connection from=":10_0" to="-11" fromLane="0" toLane="0" dir="t" state="M"/>
    <connection from=":12_0" to="-13" fromLane="0" toLane="0" dir="t" state="M"/>
    <connection from=":15_0" to="-16" fromLane="0" toLane="0" dir="t" state="M"/>
    <connection from=":19_0" to="-20" fromLane="0" toLane="0" dir="t" state="M"/>
    <connection from=":2_0" to="13" fromLane="0" toLane="0" dir="l" state="M"/>
    <connection from=":2_1" to="-3" fromLane="0" toLane="0" dir="r" state="M"/>
    <connection from=":6_0" to="-7" fromLane="0" toLane="0" dir="t" state="M"/>
    <connection from=":8_0" to="-9" fromLane="0" toLane="0" dir="s" state="M"/>
    <connection from=":8_1" to="20" fromLane="0" toLane="0" via=":8_9_0" dir="l" state="m"/>
    <connection from=":8_9" to="20" fromLane="0" toLane="0" dir="l" state="M"/>
    <connection from=":8_2" to="16" fromLane="0" toLane="0" via=":8_10_0" dir="t" state="m"/>
    <connection from=":8_10" to="16" fromLane="0" toLane="0" dir="t" state="M"/>
    <connection from=":8_3" to="16" fromLane="0" toLane="0" dir="r" state="M"/>
    <connection from=":8_4" to="-9" fromLane="0" toLane="0" dir="s" state="M"/>
    <connection from=":8_5" to="20" fromLane="0" toLane="0" via=":8_11_0" dir="t" state="m"/>
    <connection from=":8_11" to="20" fromLane="0" toLane="0" dir="t" state="M"/>
    <connection from=":8_6" to="20" fromLane="0" toLane="0" dir="R" state="M"/>
    <connection from=":8_7" to="16" fromLane="0" toLane="0" dir="s" state="M"/>
    <connection from=":8_8" to="-9" fromLane="0" toLane="0" via=":8_12_0" dir="t" state="m"/>
    <connection from=":8_12" to="-9" fromLane="0" toLane="0" dir="t" state="M"/>

</net>
