<?xml version="1.0" encoding="UTF-8"?>

<!-- generated on 2025-03-27 09:30:08 by Eclipse SUMO netgenerate Version 1.22.0
<netgenerateConfiguration xmlns:xsi="http://www.w3.org/2001/XMLSchema-instance" xsi:noNamespaceSchemaLocation="http://sumo.dlr.de/xsd/netgenerateConfiguration.xsd">

    <random_network>
        <rand value="true"/>
        <rand.iterations value="435"/>
        <rand.max-distance value="2464.6553984581915"/>
        <rand.min-distance value="651.3293779301249"/>
        <rand.min-angle value="43.660074938538024"/>
        <rand.neighbor-dist1 value="1.0"/>
        <rand.neighbor-dist2 value="10.0"/>
        <rand.neighbor-dist3 value="5.0"/>
        <rand.neighbor-dist4 value="5.0"/>
        <rand.neighbor-dist5 value="0.0"/>
        <rand.neighbor-dist6 value="0.0"/>
    </random_network>

    <output>
        <output-file value="configs/rand-configs/rand2.net.xml"/>
    </output>

    <tls_building>
        <tls.guess value="true"/>
        <tls.guess.threshold value="0"/>
    </tls_building>

</netgenerateConfiguration>
-->

<net version="1.20" junctionCornerDetail="5" limitTurnSpeed="5.50" xmlns:xsi="http://www.w3.org/2001/XMLSchema-instance" xsi:noNamespaceSchemaLocation="http://sumo.dlr.de/xsd/net_file.xsd">

    <location netOffset="19932.83,17480.22" convBoundary="0.00,0.00,36709.03,39724.83" origBoundary="-19932.83,-17480.22,16776.20,22244.61" projParameter="!"/>

    <edge id=":1_0" function="internal">
        <lane id=":1_0_0" index="0" speed="11.26" length="16.20" shape="19931.35,17487.62 19930.72,17484.40 19928.94,17481.26 19926.01,17478.19 19921.93,17475.20"/>
    </edge>
    <edge id=":1_1" function="internal">
        <lane id=":1_1_0" index="0" speed="13.89" length="18.84" shape="19931.35,17487.62 19931.04,17483.29 19930.33,17478.27 19929.43,17473.28 19928.50,17469.03"/>
    </edge>
    <edge id=":1_2" function="internal">
        <lane id=":1_2_0" index="0" speed="7.91" length="3.57" shape="19931.35,17487.62 19931.80,17484.08"/>
    </edge>
    <edge id=":1_3" function="internal">
        <lane id=":1_3_0" index="0" speed="3.65" length="1.44" shape="19931.35,17487.62 19932.13,17486.41"/>
    </edge>
    <edge id=":1_16" function="internal">
        <lane id=":1_16_0" index="0" speed="7.91" length="10.83" shape="19931.80,17484.08 19931.85,17483.68 19933.51,17480.91 19936.31,17479.32 19940.27,17478.90"/>
    </edge>
    <edge id=":1_17" function="internal">
        <lane id=":1_17_0" index="0" speed="3.65" length="3.23" shape="19932.13,17486.41 19932.93,17486.00 19933.73,17486.38 19934.55,17487.57"/>
    </edge>
    <edge id=":1_4" function="internal">
        <lane id=":1_4_0" index="0" speed="6.39" length="9.04" shape="19940.15,17482.10 19937.66,17482.36 19935.90,17483.36 19934.87,17485.10 19934.55,17487.57"/>
    </edge>
    <edge id=":1_5" function="internal">
        <lane id=":1_5_0" index="0" speed="13.89" length="19.61" shape="19940.15,17482.10 19935.79,17481.32 19930.75,17479.58 19925.86,17477.38 19921.93,17475.20"/>
    </edge>
    <edge id=":1_6" function="internal">
        <lane id=":1_6_0" index="0" speed="10.07" length="4.78" shape="19940.15,17482.10 19936.71,17480.79 19935.89,17480.05"/>
    </edge>
    <edge id=":1_7" function="internal">
        <lane id=":1_7_0" index="0" speed="3.65" length="1.44" shape="19940.15,17482.10 19938.98,17481.25"/>
    </edge>
    <edge id=":1_18" function="internal">
        <lane id=":1_18_0" index="0" speed="10.07" length="13.48" shape="19935.89,17480.05 19933.22,17477.63 19930.29,17473.44 19928.50,17469.03"/>
    </edge>
    <edge id=":1_19" function="internal">
        <lane id=":1_19_0" index="0" speed="3.65" length="3.23" shape="19938.98,17481.25 19938.61,17480.44 19939.04,17479.66 19940.27,17478.90"/>
    </edge>
    <edge id=":1_8" function="internal">
        <lane id=":1_8_0" index="0" speed="9.08" length="14.69" shape="19931.61,17468.28 19933.09,17472.84 19935.02,17476.13 19937.42,17478.15 19940.27,17478.90"/>
    </edge>
    <edge id=":1_9" function="internal">
        <lane id=":1_9_0" index="0" speed="13.89" length="19.54" shape="19931.61,17468.28 19932.55,17472.64 19933.49,17477.87 19934.22,17483.13 19934.55,17487.57"/>
    </edge>
    <edge id=":1_10" function="internal">
        <lane id=":1_10_0" index="0" speed="7.43" length="6.42" shape="19931.61,17468.28 19932.40,17474.49 19932.33,17474.64"/>
    </edge>
    <edge id=":1_11" function="internal">
        <lane id=":1_11_0" index="0" speed="3.65" length="1.44" shape="19931.61,17468.28 19931.12,17469.63"/>
    </edge>
    <edge id=":1_20" function="internal">
        <lane id=":1_20_0" index="0" speed="7.43" length="13.09" shape="19932.33,17474.64 19931.04,17477.71 19927.55,17477.95 19921.93,17475.20"/>
    </edge>
    <edge id=":1_21" function="internal">
        <lane id=":1_21_0" index="0" speed="3.65" length="3.23" shape="19931.12,17469.63 19930.43,17470.21 19929.56,17470.01 19928.50,17469.03"/>
    </edge>
    <edge id=":1_12" function="internal">
        <lane id=":1_12_0" index="0" speed="5.47" length="9.79" shape="19923.64,17472.50 19926.47,17473.88 19928.22,17473.76 19928.89,17472.14 19928.50,17469.03"/>
    </edge>
    <edge id=":1_13" function="internal">
        <lane id=":1_13_0" index="0" speed="13.89" length="17.96" shape="19923.64,17472.50 19927.32,17474.60 19931.67,17476.63 19936.16,17478.20 19940.27,17478.90"/>
    </edge>
    <edge id=":1_14" function="internal">
        <lane id=":1_14_0" index="0" speed="12.18" length="5.03" shape="19923.64,17472.50 19927.55,17475.67"/>
    </edge>
    <edge id=":1_15" function="internal">
        <lane id=":1_15_0" index="0" speed="3.65" length="1.44" shape="19923.64,17472.50 19924.23,17473.82"/>
    </edge>
    <edge id=":1_22" function="internal">
        <lane id=":1_22_0" index="0" speed="12.18" length="14.02" shape="19927.55,17475.67 19931.04,17479.74 19933.56,17483.95 19934.55,17487.57"/>
    </edge>
    <edge id=":1_23" function="internal">
        <lane id=":1_23_0" index="0" speed="3.65" length="3.23" shape="19924.23,17473.82 19924.14,17474.71 19923.37,17475.17 19921.93,17475.20"/>
    </edge>
    <edge id=":10_0" function="internal">
        <lane id=":10_0_0" index="0" speed="13.89" length="13.94" shape="17981.15,15718.92 17977.74,15720.02 17974.54,15721.14 17971.38,15722.35 17968.07,15723.71"/>
    </edge>
    <edge id=":10_1" function="internal">
        <lane id=":10_1_0" index="0" speed="8.31" length="3.85" shape="17981.15,15718.92 17977.47,15719.50 17977.34,15719.47"/>
    </edge>
    <edge id=":10_2" function="internal">
        <lane id=":10_2_0" index="0" speed="3.65" length="1.44" shape="17981.15,15718.92 17979.76,15718.51"/>
    </edge>
    <edge id=":10_9" function="internal">
        <lane id=":10_9_0" index="0" speed="8.31" length="10.24" shape="17977.34,15719.47 17974.34,15718.77 17971.77,15716.75 17969.75,15713.43"/>
    </edge>
    <edge id=":10_10" function="internal">
        <lane id=":10_10_0" index="0" speed="3.65" length="3.23" shape="17979.76,15718.51 17979.15,15717.86 17979.29,15716.98 17980.20,15715.86"/>
    </edge>
    <edge id=":10_3" function="internal">
        <lane id=":10_3_0" index="0" speed="6.88" length="9.34" shape="17972.68,15712.15 17974.03,15714.38 17975.73,15715.74 17977.78,15716.23 17980.20,15715.86"/>
    </edge>
    <edge id=":10_4" function="internal">
        <lane id=":10_4_0" index="0" speed="7.98" length="14.24" shape="17972.68,15712.15 17973.73,15715.91 17973.31,15719.10 17971.42,15721.70 17968.07,15723.71"/>
    </edge>
    <edge id=":10_5" function="internal">
        <lane id=":10_5_0" index="0" speed="3.65" length="1.44" shape="17972.68,15712.15 17972.43,15713.57"/>
    </edge>
    <edge id=":10_11" function="internal">
        <lane id=":10_11_0" index="0" speed="3.65" length="3.23" shape="17972.43,15713.57 17971.86,15714.25 17970.97,15714.21 17969.75,15713.43"/>
    </edge>
    <edge id=":10_6" function="internal">
        <lane id=":10_6_0" index="0" speed="6.48" length="9.03" shape="17966.82,15720.76 17968.95,15719.48 17970.15,15717.84 17970.41,15715.82 17969.75,15713.43"/>
    </edge>
    <edge id=":10_7" function="internal">
        <lane id=":10_7_0" index="0" speed="13.89" length="14.25" shape="17966.82,15720.76 17970.19,15719.39 17973.45,15718.14 17976.74,15716.98 17980.20,15715.86"/>
    </edge>
    <edge id=":10_8" function="internal">
        <lane id=":10_8_0" index="0" speed="3.65" length="1.44" shape="17966.82,15720.76 17968.24,15721.03"/>
    </edge>
    <edge id=":10_12" function="internal">
        <lane id=":10_12_0" index="0" speed="3.65" length="3.23" shape="17968.24,15721.03 17968.92,15721.62 17968.86,15722.51 17968.07,15723.71"/>
    </edge>
    <edge id=":1002_0" function="internal">
        <lane id=":1002_0_0" index="0" speed="6.07" length="7.91" shape="25129.83,27797.61 25128.15,27799.00 25126.45,27799.50 25124.71,27799.11 25122.94,27797.84"/>
    </edge>
    <edge id=":1002_1" function="internal">
        <lane id=":1002_1_0" index="0" speed="3.90" length="2.64" shape="25125.16,27795.54 25125.75,27795.96 25126.33,27796.09 25126.90,27795.92 25127.46,27795.46"/>
    </edge>
    <edge id=":1020_0" function="internal">
        <lane id=":1020_0_0" index="0" speed="13.89" length="15.72" shape="14618.25,18811.20 14603.32,18806.26"/>
    </edge>
    <edge id=":1020_1" function="internal">
        <lane id=":1020_1_0" index="0" speed="10.77" length="3.71" shape="14618.25,18811.20 14615.26,18809.69 14615.01,18809.44"/>
    </edge>
    <edge id=":1020_2" function="internal">
        <lane id=":1020_2_0" index="0" speed="3.65" length="1.44" shape="14618.25,18811.20 14617.33,18810.09"/>
    </edge>
    <edge id=":1020_9" function="internal">
        <lane id=":1020_9_0" index="0" speed="10.77" length="12.27" shape="14615.01,18809.44 14612.77,18807.12 14610.80,18803.49 14609.33,18798.79"/>
    </edge>
    <edge id=":1020_10" function="internal">
        <lane id=":1020_10_0" index="0" speed="3.65" length="3.23" shape="14617.33,18810.09 14617.18,18809.21 14617.79,18808.56 14619.17,18808.14"/>
    </edge>
    <edge id=":1020_3" function="internal">
        <lane id=":1020_3_0" index="0" speed="9.62" length="12.63" shape="14612.45,18798.07 14613.62,18801.94 14615.13,18804.91 14616.98,18806.98 14619.17,18808.14"/>
    </edge>
    <edge id=":1020_4" function="internal">
        <lane id=":1020_4_0" index="0" speed="7.39" length="17.10" shape="14612.45,18798.07 14612.96,18803.22 14611.60,18806.31 14608.39,18807.32 14603.32,18806.26"/>
    </edge>
    <edge id=":1020_5" function="internal">
        <lane id=":1020_5_0" index="0" speed="3.65" length="1.44" shape="14612.45,18798.07 14611.94,18799.42"/>
    </edge>
    <edge id=":1020_11" function="internal">
        <lane id=":1020_11_0" index="0" speed="3.65" length="3.23" shape="14611.94,18799.42 14611.25,18799.99 14610.38,18799.78 14609.33,18798.79"/>
    </edge>
    <edge id=":1020_6" function="internal">
        <lane id=":1020_6_0" index="0" speed="5.63" length="9.29" shape="14604.37,18803.24 14607.13,18803.81 14608.87,18803.26 14609.61,18801.59 14609.33,18798.79"/>
    </edge>
    <edge id=":1020_7" function="internal">
        <lane id=":1020_7_0" index="0" speed="13.89" length="15.59" shape="14604.37,18803.24 14619.17,18808.14"/>
    </edge>
    <edge id=":1020_8" function="internal">
        <lane id=":1020_8_0" index="0" speed="3.65" length="1.44" shape="14604.37,18803.24 14605.24,18804.39"/>
    </edge>
    <edge id=":1020_12" function="internal">
        <lane id=":1020_12_0" index="0" speed="3.65" length="3.23" shape="14605.24,18804.39 14605.36,18805.28 14604.72,18805.90 14603.32,18806.26"/>
    </edge>
    <edge id=":1029_0" function="internal">
        <lane id=":1029_0_0" index="0" speed="3.94" length="2.10" shape="12266.84,15443.44 12266.34,15443.20 12265.85,15443.13 12265.37,15443.25 12264.90,15443.56"/>
    </edge>
    <edge id=":1029_1" function="internal">
        <lane id=":1029_1_0" index="0" speed="6.15" length="6.30" shape="12262.82,15441.13 12264.22,15440.22 12265.66,15439.85 12267.12,15440.05 12268.62,15440.79"/>
    </edge>
    <edge id=":1033_0" function="internal">
        <lane id=":1033_0_0" index="0" speed="8.34" length="11.16" shape="26177.59,26652.63 26174.32,26651.68 26171.49,26651.54 26169.10,26652.21 26167.17,26653.69"/>
    </edge>
    <edge id=":1033_1" function="internal">
        <lane id=":1033_1_0" index="0" speed="7.52" length="15.77" shape="26177.59,26652.63 26173.59,26650.40 26171.77,26647.63 26172.13,26644.35 26174.66,26640.53"/>
    </edge>
    <edge id=":1033_2" function="internal">
        <lane id=":1033_2_0" index="0" speed="3.65" length="1.44" shape="26177.59,26652.63 26176.76,26651.45"/>
    </edge>
    <edge id=":1033_9" function="internal">
        <lane id=":1033_9_0" index="0" speed="3.65" length="3.23" shape="26176.76,26651.45 26176.68,26650.56 26177.34,26649.96 26178.75,26649.65"/>
    </edge>
    <edge id=":1033_3" function="internal">
        <lane id=":1033_3_0" index="0" speed="5.87" length="9.11" shape="26177.05,26642.65 26175.59,26644.86 26175.39,26646.76 26176.44,26648.36 26178.75,26649.65"/>
    </edge>
    <edge id=":1033_4" function="internal">
        <lane id=":1033_4_0" index="0" speed="13.89" length="14.82" shape="26177.05,26642.65 26167.17,26653.69"/>
    </edge>
    <edge id=":1033_5" function="internal">
        <lane id=":1033_5_0" index="0" speed="3.65" length="1.44" shape="26177.05,26642.65 26175.66,26643.02"/>
    </edge>
    <edge id=":1033_10" function="internal">
        <lane id=":1033_10_0" index="0" speed="3.65" length="3.23" shape="26175.66,26643.02 26174.80,26642.79 26174.46,26641.96 26174.66,26640.53"/>
    </edge>
    <edge id=":1033_6" function="internal">
        <lane id=":1033_6_0" index="0" speed="13.89" length="14.78" shape="26164.80,26651.54 26174.66,26640.53"/>
    </edge>
    <edge id=":1033_7" function="internal">
        <lane id=":1033_7_0" index="0" speed="9.59" length="3.60" shape="26164.80,26651.54 26167.51,26649.40 26167.64,26649.36"/>
    </edge>
    <edge id=":1033_8" function="internal">
        <lane id=":1033_8_0" index="0" speed="3.65" length="1.44" shape="26164.80,26651.54 26166.20,26651.19"/>
    </edge>
    <edge id=":1033_11" function="internal">
        <lane id=":1033_11_0" index="0" speed="9.59" length="11.43" shape="26167.64,26649.36 26170.74,26648.37 26174.48,26648.45 26178.75,26649.65"/>
    </edge>
    <edge id=":1033_12" function="internal">
        <lane id=":1033_12_0" index="0" speed="3.65" length="3.23" shape="26166.20,26651.19 26167.06,26651.43 26167.38,26652.27 26167.17,26653.69"/>
    </edge>
    <edge id=":1049_0" function="internal">
        <lane id=":1049_0_0" index="0" speed="4.02" length="1.68" shape="14354.11,17698.40 14353.96,17697.99 14353.73,17697.66 14353.42,17697.40 14353.02,17697.23"/>
    </edge>
    <edge id=":1049_1" function="internal">
        <lane id=":1049_1_0" index="0" speed="6.30" length="5.03" shape="14353.95,17694.17 14355.15,17694.69 14356.10,17695.45 14356.79,17696.44 14357.23,17697.67"/>
    </edge>
    <edge id=":1051_0" function="internal">
        <lane id=":1051_0_0" index="0" speed="13.89" length="16.31" shape="12903.77,18213.51 12899.95,18212.67 12895.77,18212.50 12891.55,18212.78 12887.61,18213.33"/>
    </edge>
    <edge id=":1051_1" function="internal">
        <lane id=":1051_1_0" index="0" speed="13.89" length="17.82" shape="12903.77,18213.51 12899.97,18211.80 12895.91,18209.41 12892.00,18206.73 12888.65,18204.19"/>
    </edge>
    <edge id=":1051_2" function="internal">
        <lane id=":1051_2_0" index="0" speed="9.99" length="4.00" shape="12903.77,18213.51 12900.71,18211.70 12900.45,18211.34"/>
    </edge>
    <edge id=":1051_3" function="internal">
        <lane id=":1051_3_0" index="0" speed="3.65" length="1.44" shape="12903.77,18213.51 12902.90,18212.36"/>
    </edge>
    <edge id=":1051_16" function="internal">
        <lane id=":1051_16_0" index="0" speed="9.99" length="12.91" shape="12900.45,18211.34 12898.53,18208.73 12897.22,18204.59 12896.80,18199.28"/>
    </edge>
    <edge id=":1051_17" function="internal">
        <lane id=":1051_17_0" index="0" speed="3.65" length="3.23" shape="12902.90,18212.36 12902.79,18211.47 12903.43,18210.85 12904.83,18210.49"/>
    </edge>
    <edge id=":1051_4" function="internal">
        <lane id=":1051_4_0" index="0" speed="8.80" length="12.95" shape="12900.00,18199.29 12900.29,18203.55 12901.19,18206.84 12902.71,18209.15 12904.83,18210.49"/>
    </edge>
    <edge id=":1051_5" function="internal">
        <lane id=":1051_5_0" index="0" speed="10.19" length="8.99" shape="12900.00,18199.29 12899.21,18204.67 12897.47,18207.77"/>
    </edge>
    <edge id=":1051_6" function="internal">
        <lane id=":1051_6_0" index="0" speed="7.44" length="8.51" shape="12900.00,18199.29 12899.28,18204.83 12897.45,18207.11"/>
    </edge>
    <edge id=":1051_7" function="internal">
        <lane id=":1051_7_0" index="0" speed="3.65" length="1.44" shape="12900.00,18199.29 12899.19,18200.49"/>
    </edge>
    <edge id=":1051_18" function="internal">
        <lane id=":1051_18_0" index="0" speed="10.19" length="11.66" shape="12897.47,18207.77 12896.89,18208.80 12893.02,18211.69 12887.61,18213.33"/>
    </edge>
    <edge id=":1051_19" function="internal">
        <lane id=":1051_19_0" index="0" speed="7.44" length="9.88" shape="12897.45,18207.11 12897.15,18207.50 12893.60,18207.28 12888.65,18204.19"/>
    </edge>
    <edge id=":1051_20" function="internal">
        <lane id=":1051_20_0" index="0" speed="3.65" length="3.23" shape="12899.19,18200.49 12898.39,18200.88 12897.59,18200.48 12896.80,18199.28"/>
    </edge>
    <edge id=":1051_8" function="internal">
        <lane id=":1051_8_0" index="0" speed="5.62" length="9.81" shape="12890.65,18201.69 12893.34,18203.38 12895.25,18203.55 12896.41,18202.18 12896.80,18199.28"/>
    </edge>
    <edge id=":1051_9" function="internal">
        <lane id=":1051_9_0" index="0" speed="13.89" length="16.74" shape="12890.65,18201.69 12893.85,18204.16 12897.43,18206.65 12901.17,18208.86 12904.83,18210.49"/>
    </edge>
    <edge id=":1051_10" function="internal">
        <lane id=":1051_10_0" index="0" speed="7.39" length="4.80" shape="12890.65,18201.69 12894.02,18205.11"/>
    </edge>
    <edge id=":1051_11" function="internal">
        <lane id=":1051_11_0" index="0" speed="3.65" length="1.44" shape="12890.65,18201.69 12891.09,18203.07"/>
    </edge>
    <edge id=":1051_21" function="internal">
        <lane id=":1051_21_0" index="0" speed="7.39" length="13.86" shape="12894.02,18205.11 12894.78,18205.88 12895.65,18209.22 12893.26,18211.70 12887.61,18213.33"/>
    </edge>
    <edge id=":1051_22" function="internal">
        <lane id=":1051_22_0" index="0" speed="3.65" length="3.23" shape="12891.09,18203.07 12890.90,18203.94 12890.09,18204.32 12888.65,18204.19"/>
    </edge>
    <edge id=":1051_12" function="internal">
        <lane id=":1051_12_0" index="0" speed="5.50" length="9.59" shape="12887.09,18210.17 12889.99,18209.33 12891.22,18208.06 12890.78,18206.34 12888.65,18204.19"/>
    </edge>
    <edge id=":1051_13" function="internal">
        <lane id=":1051_13_0" index="0" speed="9.05" length="16.10" shape="12887.09,18210.17 12891.33,18208.89 12894.36,18206.65 12896.18,18203.45 12896.80,18199.28"/>
    </edge>
    <edge id=":1051_14" function="internal">
        <lane id=":1051_14_0" index="0" speed="13.89" length="17.87" shape="12887.09,18210.17 12891.28,18209.65 12896.04,18209.41 12900.76,18209.63 12904.83,18210.49"/>
    </edge>
    <edge id=":1051_15" function="internal">
        <lane id=":1051_15_0" index="0" speed="3.65" length="1.31" shape="12887.09,18210.17 12888.28,18210.71"/>
    </edge>
    <edge id=":1051_23" function="internal">
        <lane id=":1051_23_0" index="0" speed="3.65" length="3.36" shape="12888.28,18210.71 12888.40,18210.77 12888.93,18211.49 12888.66,18212.34 12887.61,18213.33"/>
    </edge>
    <edge id=":1058_0" function="internal">
        <lane id=":1058_0_0" index="0" speed="6.07" length="7.97" shape="11448.81,16143.42 11446.95,16144.60 11445.19,16144.88 11443.51,16144.27 11441.92,16142.76"/>
    </edge>
    <edge id=":1058_1" function="internal">
        <lane id=":1058_1_0" index="0" speed="3.90" length="2.66" shape="11444.43,16140.77 11444.96,16141.27 11445.52,16141.48 11446.11,16141.39 11446.72,16140.99"/>
    </edge>
    <edge id=":1062_0" function="internal">
        <lane id=":1062_0_0" index="0" speed="8.92" length="1.95" shape="27749.77,24869.75 27749.58,24870.29 27749.41,24870.66 27749.18,24870.98 27748.80,24871.42"/>
    </edge>
    <edge id=":1062_1" function="internal">
        <lane id=":1062_1_0" index="0" speed="13.89" length="0.65" shape="27746.41,24869.29 27746.53,24869.15 27746.61,24869.04 27746.67,24868.92 27746.73,24868.74"/>
    </edge>
    <edge id=":1066_0" function="internal">
        <lane id=":1066_0_0" index="0" speed="6.10" length="7.00" shape="27550.12,27181.65 27551.77,27182.57 27552.81,27183.81 27553.24,27185.37 27553.05,27187.24"/>
    </edge>
    <edge id=":1066_1" function="internal">
        <lane id=":1066_1_0" index="0" speed="3.92" length="2.33" shape="27549.94,27186.50 27550.00,27185.87 27549.86,27185.36 27549.51,27184.94 27548.96,27184.64"/>
    </edge>
    <edge id=":1083_0" function="internal">
        <lane id=":1083_0_0" index="0" speed="6.39" length="9.04" shape="10718.17,15227.52 10716.35,15225.81 10714.45,15225.12 10712.46,15225.47 10710.38,15226.84"/>
    </edge>
    <edge id=":1083_1" function="internal">
        <lane id=":1083_1_0" index="0" speed="12.54" length="13.35" shape="10718.17,15227.52 10716.10,15224.67 10714.60,15221.83 10713.75,15218.79 10713.63,15215.33"/>
    </edge>
    <edge id=":1083_2" function="internal">
        <lane id=":1083_2_0" index="0" speed="3.65" length="1.44" shape="10718.17,15227.52 10718.05,15226.09"/>
    </edge>
    <edge id=":1083_9" function="internal">
        <lane id=":1083_9_0" index="0" speed="3.65" length="3.23" shape="10718.05,15226.09 10718.43,15225.28 10719.30,15225.09 10720.68,15225.54"/>
    </edge>
    <edge id=":1083_3" function="internal">
        <lane id=":1083_3_0" index="0" speed="11.46" length="11.08" shape="10716.82,15215.57 10716.83,15218.68 10717.45,15220.95 10718.71,15223.03 10720.68,15225.54"/>
    </edge>
    <edge id=":1083_4" function="internal">
        <lane id=":1083_4_0" index="0" speed="12.19" length="3.21" shape="10716.82,15215.57 10716.23,15218.73"/>
    </edge>
    <edge id=":1083_5" function="internal">
        <lane id=":1083_5_0" index="0" speed="3.65" length="1.33" shape="10716.82,15215.57 10716.00,15216.62"/>
    </edge>
    <edge id=":1083_10" function="internal">
        <lane id=":1083_10_0" index="0" speed="12.19" length="10.14" shape="10716.23,15218.73 10716.18,15218.97 10714.86,15221.83 10712.91,15224.38 10710.38,15226.84"/>
    </edge>
    <edge id=":1083_11" function="internal">
        <lane id=":1083_11_0" index="0" speed="3.65" length="3.34" shape="10716.00,15216.62 10715.93,15216.71 10715.11,15217.05 10714.34,15216.59 10713.63,15215.33"/>
    </edge>
    <edge id=":1083_6" function="internal">
        <lane id=":1083_6_0" index="0" speed="11.10" length="11.01" shape="10708.25,15224.45 10710.62,15222.32 10712.20,15220.52 10713.16,15218.40 10713.63,15215.33"/>
    </edge>
    <edge id=":1083_7" function="internal">
        <lane id=":1083_7_0" index="0" speed="7.90" length="14.42" shape="10708.25,15224.45 10711.57,15222.25 10714.75,15221.70 10717.79,15222.80 10720.68,15225.54"/>
    </edge>
    <edge id=":1083_8" function="internal">
        <lane id=":1083_8_0" index="0" speed="3.65" length="1.44" shape="10708.25,15224.45 10709.68,15224.25"/>
    </edge>
    <edge id=":1083_12" function="internal">
        <lane id=":1083_12_0" index="0" speed="3.65" length="3.23" shape="10709.68,15224.25 10710.51,15224.58 10710.74,15225.45 10710.38,15226.84"/>
    </edge>
    <edge id=":1092_0" function="internal">
        <lane id=":1092_0_0" index="0" speed="13.89" length="12.87" shape="24466.42,24712.48 24464.03,24714.94 24462.08,24717.25 24460.41,24719.76 24458.85,24722.79"/>
    </edge>
    <edge id=":1092_1" function="internal">
        <lane id=":1092_1_0" index="0" speed="7.78" length="3.97" shape="24466.42,24712.48 24463.23,24714.85"/>
    </edge>
    <edge id=":1092_2" function="internal">
        <lane id=":1092_2_0" index="0" speed="3.65" length="1.44" shape="24466.42,24712.48 24465.00,24712.76"/>
    </edge>
    <edge id=":1092_9" function="internal">
        <lane id=":1092_9_0" index="0" speed="7.78" length="10.76" shape="24463.23,24714.85 24463.11,24714.94 24459.93,24715.61 24456.88,24714.49 24453.96,24711.59"/>
    </edge>
    <edge id=":1092_10" function="internal">
        <lane id=":1092_10_0" index="0" speed="3.65" length="3.23" shape="24465.00,24712.76 24464.15,24712.48 24463.87,24711.63 24464.16,24710.21"/>
    </edge>
    <edge id=":1092_3" function="internal">
        <lane id=":1092_3_0" index="0" speed="6.23" length="9.05" shape="24456.51,24709.67 24458.31,24711.45 24460.18,24712.13 24462.13,24711.72 24464.16,24710.21"/>
    </edge>
    <edge id=":1092_4" function="internal">
        <lane id=":1092_4_0" index="0" speed="9.96" length="14.02" shape="24456.51,24709.67 24458.60,24713.07 24459.69,24716.39 24459.77,24719.63 24458.85,24722.79"/>
    </edge>
    <edge id=":1092_5" function="internal">
        <lane id=":1092_5_0" index="0" speed="3.65" length="1.44" shape="24456.51,24709.67 24456.59,24711.10"/>
    </edge>
    <edge id=":1092_11" function="internal">
        <lane id=":1092_11_0" index="0" speed="3.65" length="3.23" shape="24456.59,24711.10 24456.20,24711.91 24455.32,24712.07 24453.96,24711.59"/>
    </edge>
    <edge id=":1092_6" function="internal">
        <lane id=":1092_6_0" index="0" speed="8.72" length="10.58" shape="24455.94,24721.46 24456.59,24719.15 24456.47,24716.74 24455.60,24714.22 24453.96,24711.59"/>
    </edge>
    <edge id=":1092_7" function="internal">
        <lane id=":1092_7_0" index="0" speed="13.89" length="14.01" shape="24455.94,24721.46 24457.60,24718.28 24459.50,24715.45 24461.67,24712.82 24464.16,24710.21"/>
    </edge>
    <edge id=":1092_8" function="internal">
        <lane id=":1092_8_0" index="0" speed="3.65" length="1.44" shape="24455.94,24721.46 24457.16,24720.70"/>
    </edge>
    <edge id=":1092_12" function="internal">
        <lane id=":1092_12_0" index="0" speed="3.65" length="3.23" shape="24457.16,24720.70 24458.06,24720.67 24458.62,24721.37 24458.85,24722.79"/>
    </edge>
    <edge id=":111_0" function="internal">
        <lane id=":111_0_0" index="0" speed="9.26" length="9.94" shape="17126.19,24899.62 17124.33,24897.48 17122.34,24895.94 17120.22,24895.01 17117.97,24894.69"/>
    </edge>
    <edge id=":111_1" function="internal">
        <lane id=":111_1_0" index="0" speed="8.01" length="13.74" shape="17126.19,24899.62 17124.43,24896.32 17124.11,24893.21 17125.22,24890.29 17127.79,24887.56"/>
    </edge>
    <edge id=":111_2" function="internal">
        <lane id=":111_2_0" index="0" speed="3.65" length="1.44" shape="17126.19,24899.62 17126.13,24898.18"/>
    </edge>
    <edge id=":111_9" function="internal">
        <lane id=":111_9_0" index="0" speed="3.65" length="3.23" shape="17126.13,24898.18 17126.54,24897.39 17127.42,24897.24 17128.77,24897.73"/>
    </edge>
    <edge id=":111_3" function="internal">
        <lane id=":111_3_0" index="0" speed="6.51" length="8.74" shape="17129.79,24890.06 17128.16,24891.80 17127.45,24893.65 17127.65,24895.63 17128.77,24897.73"/>
    </edge>
    <edge id=":111_4" function="internal">
        <lane id=":111_4_0" index="0" speed="13.21" length="12.99" shape="17129.79,24890.06 17127.00,24892.11 17124.29,24893.56 17121.38,24894.42 17117.97,24894.69"/>
    </edge>
    <edge id=":111_5" function="internal">
        <lane id=":111_5_0" index="0" speed="3.65" length="1.44" shape="17129.79,24890.06 17128.35,24890.19"/>
    </edge>
    <edge id=":111_10" function="internal">
        <lane id=":111_10_0" index="0" speed="3.65" length="3.23" shape="17128.35,24890.19 17127.54,24889.81 17127.35,24888.94 17127.79,24887.56"/>
    </edge>
    <edge id=":111_6" function="internal">
        <lane id=":111_6_0" index="0" speed="12.13" length="10.89" shape="17117.99,24891.49 17121.08,24891.33 17123.30,24890.71 17125.31,24889.50 17127.79,24887.56"/>
    </edge>
    <edge id=":111_7" function="internal">
        <lane id=":111_7_0" index="0" speed="10.50" length="3.04" shape="17117.99,24891.49 17121.00,24891.90"/>
    </edge>
    <edge id=":111_8" function="internal">
        <lane id=":111_8_0" index="0" speed="3.65" length="1.44" shape="17117.99,24891.49 17119.18,24892.30"/>
    </edge>
    <edge id=":111_11" function="internal">
        <lane id=":111_11_0" index="0" speed="10.50" length="9.89" shape="17121.00,24891.90 17123.81,24893.07 17126.40,24895.02 17128.77,24897.73"/>
    </edge>
    <edge id=":111_12" function="internal">
        <lane id=":111_12_0" index="0" speed="3.65" length="3.23" shape="17119.18,24892.30 17119.58,24893.10 17119.17,24893.90 17117.97,24894.69"/>
    </edge>
    <edge id=":1111_0" function="internal">
        <lane id=":1111_0_0" index="0" speed="6.13" length="10.22" shape="10100.28,15769.03 10097.80,15770.68 10095.68,15770.90 10093.94,15769.69 10092.57,15767.04"/>
    </edge>
    <edge id=":1111_1" function="internal">
        <lane id=":1111_1_0" index="0" speed="3.93" length="3.41" shape="10095.58,15765.97 10096.04,15766.86 10096.62,15767.26 10097.33,15767.19 10098.16,15766.64"/>
    </edge>
    <edge id=":1117_0" function="internal">
        <lane id=":1117_0_0" index="0" speed="13.89" length="13.59" shape="10837.41,13588.57 10836.34,13591.93 10835.65,13595.11 10835.22,13598.36 10834.92,13601.88"/>
    </edge>
    <edge id=":1117_1" function="internal">
        <lane id=":1117_1_0" index="0" speed="10.83" length="3.22" shape="10837.41,13588.57 10835.86,13591.40"/>
    </edge>