<?xml version="1.0" encoding="UTF-8"?>

<!-- generated on 2025-03-27 09:30:08 by Eclipse SUMO netgenerate Version 1.22.0
<netgenerateConfiguration xmlns:xsi="http://www.w3.org/2001/XMLSchema-instance" xsi:noNamespaceSchemaLocation="http://sumo.dlr.de/xsd/netgenerateConfiguration.xsd">

    <random_network>
        <rand value="true"/>
        <rand.iterations value="212"/>
        <rand.max-distance value="2193.5597146183827"/>
        <rand.min-distance value="603.3906161536609"/>
        <rand.min-angle value="36.7818418284088"/>
        <rand.neighbor-dist1 value="1.0"/>
        <rand.neighbor-dist2 value="10.0"/>
        <rand.neighbor-dist3 value="5.0"/>
        <rand.neighbor-dist4 value="5.0"/>
        <rand.neighbor-dist5 value="0.0"/>
        <rand.neighbor-dist6 value="0.0"/>
    </random_network>

    <output>
        <output-file value="configs/rand-configs/rand3.net.xml"/>
    </output>

    <tls_building>
        <tls.guess value="true"/>
        <tls.guess.threshold value="0"/>
    </tls_building>

</netgenerateConfiguration>
-->

<net version="1.20" junctionCornerDetail="5" limitTurnSpeed="5.50" xmlns:xsi="http://www.w3.org/2001/XMLSchema-instance" xsi:noNamespaceSchemaLocation="http://sumo.dlr.de/xsd/net_file.xsd">

    <location netOffset="10306.77,9903.73" convBoundary="0.00,0.00,24827.55,26414.58" origBoundary="-10306.77,-9903.73,14520.79,16510.86" projParameter="!"/>

    <edge id=":1_0" function="internal">
        <lane id=":1_0_0" index="0" speed="11.26" length="16.20" shape="10305.28,9911.13 10304.66,9907.91 10302.88,9904.77 10299.95,9901.70 10295.86,9898.71"/>
    </edge>
    <edge id=":1_1" function="internal">
        <lane id=":1_1_0" index="0" speed="13.89" length="18.84" shape="10305.28,9911.13 10304.97,9906.80 10304.27,9901.78 10303.36,9896.79 10302.44,9892.53"/>
    </edge>
    <edge id=":1_2" function="internal">
        <lane id=":1_2_0" index="0" speed="7.91" length="3.57" shape="10305.28,9911.13 10305.74,9907.58"/>
    </edge>
    <edge id=":1_3" function="internal">
        <lane id=":1_3_0" index="0" speed="3.65" length="1.44" shape="10305.28,9911.13 10306.07,9909.92"/>
    </edge>
    <edge id=":1_16" function="internal">
        <lane id=":1_16_0" index="0" speed="7.91" length="10.83" shape="10305.74,9907.58 10305.79,9907.18 10307.44,9904.42 10310.25,9902.82 10314.20,9902.41"/>
    </edge>
    <edge id=":1_17" function="internal">
        <lane id=":1_17_0" index="0" speed="3.65" length="3.23" shape="10306.07,9909.92 10306.86,9909.50 10307.67,9909.89 10308.48,9911.08"/>
    </edge>
    <edge id=":1_4" function="internal">
        <lane id=":1_4_0" index="0" speed="6.39" length="9.04" shape="10314.08,9905.61 10311.60,9905.87 10309.84,9906.87 10308.80,9908.60 10308.48,9911.08"/>
    </edge>
    <edge id=":1_5" function="internal">
        <lane id=":1_5_0" index="0" speed="13.89" length="19.61" shape="10314.08,9905.61 10309.72,9904.82 10304.68,9903.09 10299.79,9900.89 10295.86,9898.71"/>
    </edge>
    <edge id=":1_6" function="internal">
        <lane id=":1_6_0" index="0" speed="10.07" length="4.78" shape="10314.08,9905.61 10310.64,9904.29 10309.82,9903.55"/>
    </edge>
    <edge id=":1_7" function="internal">
        <lane id=":1_7_0" index="0" speed="3.65" length="1.44" shape="10314.08,9905.61 10312.91,9904.76"/>
    </edge>
    <edge id=":1_18" function="internal">
        <lane id=":1_18_0" index="0" speed="10.07" length="13.48" shape="10309.82,9903.55 10307.16,9901.14 10304.23,9896.95 10302.44,9892.53"/>
    </edge>
    <edge id=":1_19" function="internal">
        <lane id=":1_19_0" index="0" speed="3.65" length="3.23" shape="10312.91,9904.76 10312.54,9903.95 10312.97,9903.16 10314.20,9902.41"/>
    </edge>
    <edge id=":1_8" function="internal">
        <lane id=":1_8_0" index="0" speed="9.08" length="14.69" shape="10305.55,9891.78 10307.02,9896.34 10308.96,9899.64 10311.35,9901.66 10314.20,9902.41"/>
    </edge>
    <edge id=":1_9" function="internal">
        <lane id=":1_9_0" index="0" speed="13.89" length="19.54" shape="10305.55,9891.78 10306.49,9896.15 10307.42,9901.38 10308.16,9906.64 10308.48,9911.08"/>
    </edge>
    <edge id=":1_10" function="internal">
        <lane id=":1_10_0" index="0" speed="7.43" length="6.42" shape="10305.55,9891.78 10306.33,9898.00 10306.27,9898.14"/>
    </edge>
    <edge id=":1_11" function="internal">
        <lane id=":1_11_0" index="0" speed="3.65" length="1.44" shape="10305.55,9891.78 10305.05,9893.14"/>
    </edge>
    <edge id=":1_20" function="internal">
        <lane id=":1_20_0" index="0" speed="7.43" length="13.09" shape="10306.27,9898.14 10304.98,9901.22 10301.49,9901.46 10295.86,9898.71"/>
    </edge>
    <edge id=":1_21" function="internal">
        <lane id=":1_21_0" index="0" speed="3.65" length="3.23" shape="10305.05,9893.14 10304.36,9893.71 10303.49,9893.51 10302.44,9892.53"/>
    </edge>
    <edge id=":1_12" function="internal">
        <lane id=":1_12_0" index="0" speed="5.47" length="9.79" shape="10297.58,9896.00 10300.40,9897.38 10302.15,9897.26 10302.83,9895.65 10302.44,9892.53"/>
    </edge>
    <edge id=":1_13" function="internal">
        <lane id=":1_13_0" index="0" speed="13.89" length="17.96" shape="10297.58,9896.00 10301.25,9898.11 10305.60,9900.14 10310.09,9901.70 10314.20,9902.41"/>
    </edge>
    <edge id=":1_14" function="internal">
        <lane id=":1_14_0" index="0" speed="12.18" length="5.03" shape="10297.58,9896.00 10301.48,9899.18"/>
    </edge>
    <edge id=":1_15" function="internal">
        <lane id=":1_15_0" index="0" speed="3.65" length="1.44" shape="10297.58,9896.00 10298.16,9897.32"/>
    </edge>
    <edge id=":1_22" function="internal">
        <lane id=":1_22_0" index="0" speed="12.18" length="14.02" shape="10301.48,9899.18 10304.97,9903.24 10307.49,9907.45 10308.48,9911.08"/>
    </edge>
    <edge id=":1_23" function="internal">
        <lane id=":1_23_0" index="0" speed="3.65" length="3.23" shape="10298.16,9897.32 10298.07,9898.21 10297.31,9898.67 10295.86,9898.71"/>
    </edge>
    <edge id=":10_0" function="internal">
        <lane id=":10_0_0" index="0" speed="12.53" length="18.58" shape="8559.74,8336.75 8555.18,8337.62 8550.73,8337.37 8546.38,8335.99 8542.14,8333.49"/>
    </edge>
    <edge id=":10_1" function="internal">
        <lane id=":10_1_0" index="0" speed="7.59" length="6.16" shape="8559.74,8336.75 8555.10,8337.47 8553.73,8336.94"/>
    </edge>
    <edge id=":10_2" function="internal">
        <lane id=":10_2_0" index="0" speed="3.65" length="1.44" shape="8559.74,8336.75 8558.35,8336.34"/>
    </edge>
    <edge id=":10_9" function="internal">
        <lane id=":10_9_0" index="0" speed="7.59" length="10.40" shape="8553.73,8336.94 8551.97,8336.27 8550.34,8333.17 8550.21,8328.16"/>
    </edge>
    <edge id=":10_10" function="internal">
        <lane id=":10_10_0" index="0" speed="3.65" length="3.23" shape="8558.35,8336.34 8557.74,8335.69 8557.88,8334.81 8558.79,8333.69"/>
    </edge>
    <edge id=":10_3" function="internal">
        <lane id=":10_3_0" index="0" speed="5.95" length="9.66" shape="8553.39,8328.49 8553.45,8331.48 8554.37,8333.34 8556.15,8334.08 8558.79,8333.69"/>
    </edge>
    <edge id=":10_4" function="internal">
        <lane id=":10_4_0" index="0" speed="7.40" length="16.83" shape="8553.39,8328.49 8552.21,8333.41 8549.94,8335.88 8546.58,8335.91 8542.14,8333.49"/>
    </edge>
    <edge id=":10_5" function="internal">
        <lane id=":10_5_0" index="0" speed="3.65" length="1.44" shape="8553.39,8328.49 8552.47,8329.60"/>
    </edge>
    <edge id=":10_11" function="internal">
        <lane id=":10_11_0" index="0" speed="3.65" length="3.23" shape="8552.47,8329.60 8551.63,8329.92 8550.88,8329.44 8550.21,8328.16"/>
    </edge>
    <edge id=":10_6" function="internal">
        <lane id=":10_6_0" index="0" speed="5.66" length="9.24" shape="8544.03,8330.91 8546.47,8332.24 8548.31,8332.22 8549.56,8330.86 8550.21,8328.16"/>
    </edge>
    <edge id=":10_7" function="internal">
        <lane id=":10_7_0" index="0" speed="11.51" length="15.59" shape="8544.03,8330.91 8547.61,8333.02 8551.26,8334.19 8554.99,8334.41 8558.79,8333.69"/>
    </edge>
    <edge id=":10_8" function="internal">
        <lane id=":10_8_0" index="0" speed="3.65" length="1.34" shape="8544.03,8330.91 8544.49,8332.16"/>
    </edge>
    <edge id=":10_12" function="internal">
        <lane id=":10_12_0" index="0" speed="3.65" length="3.34" shape="8544.49,8332.16 8544.53,8332.26 8544.38,8333.14 8543.58,8333.55 8542.14,8333.49"/>
    </edge>
    <edge id=":1004_0" function="internal">
        <lane id=":1004_0_0" index="0" speed="6.24" length="5.42" shape="1518.81,19235.57 1518.72,19234.16 1519.00,19232.90 1519.65,19231.78 1520.68,19230.81"/>
    </edge>
    <edge id=":1004_1" function="internal">
        <lane id=":1004_1_0" index="0" speed="3.99" length="1.81" shape="1522.58,19233.39 1522.24,19233.71 1522.02,19234.08 1521.93,19234.50 1521.96,19234.97"/>
    </edge>
    <edge id=":1014_0" function="internal">
        <lane id=":1014_0_0" index="0" speed="13.89" length="16.91" shape="4698.64,5858.98 4697.23,5855.18 4695.25,5851.22 4692.85,5847.54 4690.18,5844.51"/>
    </edge>
    <edge id=":1014_1" function="internal">
        <lane id=":1014_1_0" index="0" speed="13.89" length="18.45" shape="4698.64,5858.98 4697.88,5854.75 4697.75,5849.79 4698.30,5844.88 4699.57,5840.83"/>
    </edge>
    <edge id=":1014_2" function="internal">
        <lane id=":1014_2_0" index="0" speed="7.39" length="6.45" shape="4698.64,5858.98 4697.81,5853.80 4698.23,5852.67"/>
    </edge>
    <edge id=":1014_3" function="internal">
        <lane id=":1014_3_0" index="0" speed="3.65" length="1.44" shape="4698.64,5858.98 4699.06,5857.60"/>
    </edge>
    <edge id=":1014_16" function="internal">
        <lane id=":1014_16_0" index="0" speed="7.39" length="10.79" shape="4698.23,5852.67 4698.98,5850.64 4702.16,5849.49 4707.33,5850.35"/>
    </edge>
    <edge id=":1014_17" function="internal">
        <lane id=":1014_17_0" index="0" speed="3.65" length="3.23" shape="4699.06,5857.60 4699.72,5856.99 4700.60,5857.15 4701.71,5858.07"/>
    </edge>
    <edge id=":1014_4" function="internal">
        <lane id=":1014_4_0" index="0" speed="5.61" length="9.31" shape="4706.40,5853.42 4703.61,5852.95 4701.89,5853.57 4701.26,5855.28 4701.71,5858.07"/>
    </edge>
    <edge id=":1014_5" function="internal">
        <lane id=":1014_5_0" index="0" speed="13.89" length="18.61" shape="4706.40,5853.42 4702.36,5851.89 4697.87,5849.70 4693.59,5847.14 4690.18,5844.51"/>
    </edge>
    <edge id=":1014_6" function="internal">
        <lane id=":1014_6_0" index="0" speed="8.24" length="6.13" shape="4706.40,5853.42 4701.73,5851.34 4701.02,5850.60"/>
    </edge>
    <edge id=":1014_7" function="internal">
        <lane id=":1014_7_0" index="0" speed="3.65" length="1.44" shape="4706.40,5853.42 4705.48,5852.30"/>
    </edge>
    <edge id=":1014_18" function="internal">
        <lane id=":1014_18_0" index="0" speed="8.24" length="10.83" shape="4701.02,5850.60 4699.04,5848.55 4698.32,5845.05 4699.57,5840.83"/>
    </edge>
    <edge id=":1014_19" function="internal">
        <lane id=":1014_19_0" index="0" speed="3.65" length="3.23" shape="4705.48,5852.30 4705.33,5851.42 4705.95,5850.77 4707.33,5850.35"/>
    </edge>
    <edge id=":1014_8" function="internal">
        <lane id=":1014_8_0" index="0" speed="6.81" length="11.20" shape="4702.44,5842.23 4701.69,5844.91 4702.25,5847.15 4704.13,5848.97 4707.33,5850.35"/>
    </edge>
    <edge id=":1014_9" function="internal">
        <lane id=":1014_9_0" index="0" speed="13.78" length="16.16" shape="4702.44,5842.23 4701.20,5845.93 4700.72,5850.04 4700.92,5854.21 4701.71,5858.07"/>
    </edge>
    <edge id=":1014_10" function="internal">
        <lane id=":1014_10_0" index="0" speed="7.58" length="2.43" shape="4702.44,5842.23 4701.08,5844.24"/>
    </edge>
    <edge id=":1014_11" function="internal">
        <lane id=":1014_11_0" index="0" speed="3.65" length="1.30" shape="4702.44,5842.23 4701.32,5842.88"/>
    </edge>
    <edge id=":1014_20" function="internal">
        <lane id=":1014_20_0" index="0" speed="7.58" length="13.02" shape="4701.08,5844.24 4699.95,5845.90 4697.08,5847.50 4693.82,5847.04 4690.18,5844.51"/>
    </edge>
    <edge id=":1014_21" function="internal">
        <lane id=":1014_21_0" index="0" speed="3.65" length="3.38" shape="4701.32,5842.88 4701.20,5842.96 4700.30,5842.96 4699.76,5842.25 4699.57,5840.83"/>
    </edge>
    <edge id=":1014_12" function="internal">
        <lane id=":1014_12_0" index="0" speed="5.96" length="9.09" shape="4692.35,5842.17 4694.50,5843.66 4696.41,5843.93 4698.10,5842.98 4699.57,5840.83"/>
    </edge>
    <edge id=":1014_13" function="internal">
        <lane id=":1014_13_0" index="0" speed="13.89" length="17.18" shape="4692.35,5842.17 4695.57,5844.68 4699.42,5846.99 4703.49,5848.94 4707.33,5850.35"/>
    </edge>
    <edge id=":1014_14" function="internal">
        <lane id=":1014_14_0" index="0" speed="13.89" length="18.59" shape="4692.35,5842.17 4695.16,5845.41 4697.87,5849.60 4700.16,5854.04 4701.71,5858.07"/>
    </edge>
    <edge id=":1014_15" function="internal">
        <lane id=":1014_15_0" index="0" speed="3.65" length="1.44" shape="4692.35,5842.17 4692.69,5843.57"/>
    </edge>
    <edge id=":1014_22" function="internal">
        <lane id=":1014_22_0" index="0" speed="3.65" length="3.23" shape="4692.69,5843.57 4692.44,5844.43 4691.60,5844.74 4690.18,5844.51"/>
    </edge>
    <edge id=":1018_0" function="internal">
        <lane id=":1018_0_0" index="0" speed="5.60" length="9.33" shape="16183.09,15943.88 16182.45,15941.11 16181.22,15939.77 16179.40,15939.86 16177.00,15941.38"/>
    </edge>
    <edge id=":1018_1" function="internal">
        <lane id=":1018_1_0" index="0" speed="10.77" length="16.19" shape="16183.09,15943.88 16182.96,15938.86 16183.67,15934.72 16185.21,15931.46 16187.59,15929.07"/>
    </edge>
    <edge id=":1018_2" function="internal">
        <lane id=":1018_2_0" index="0" speed="3.65" length="1.44" shape="16183.09,15943.88 16183.77,15942.61"/>
    </edge>
    <edge id=":1018_9" function="internal">
        <lane id=":1018_9_0" index="0" speed="3.65" length="3.23" shape="16183.77,15942.61 16184.52,15942.13 16185.36,15942.45 16186.27,15943.56"/>
    </edge>
    <edge id=":1018_3" function="internal">
        <lane id=":1018_3_0" index="0" speed="9.63" length="12.81" shape="16189.42,15931.69 16187.71,15933.50 16186.61,15936.07 16186.13,15939.43 16186.27,15943.56"/>
    </edge>
    <edge id=":1018_4" function="internal">
        <lane id=":1018_4_0" index="0" speed="13.89" length="15.75" shape="16189.42,15931.69 16177.00,15941.38"/>
    </edge>
    <edge id=":1018_5" function="internal">
        <lane id=":1018_5_0" index="0" speed="3.65" length="1.44" shape="16189.42,15931.69 16187.98,15931.73"/>
    </edge>
    <edge id=":1018_10" function="internal">
        <lane id=":1018_10_0" index="0" speed="3.65" length="3.23" shape="16187.98,15931.73 16187.19,15931.30 16187.06,15930.41 16187.59,15929.07"/>
    </edge>
    <edge id=":1018_6" function="internal">
        <lane id=":1018_6_0" index="0" speed="13.89" length="16.01" shape="16174.96,15938.92 16187.59,15929.07"/>
    </edge>
    <edge id=":1018_7" function="internal">
        <lane id=":1018_7_0" index="0" speed="7.38" length="5.42" shape="16174.96,15938.92 16179.42,15936.09 16179.55,15936.08"/>
    </edge>
    <edge id=":1018_8" function="internal">
        <lane id=":1018_8_0" index="0" speed="3.65" length="1.44" shape="16174.96,15938.92 16176.39,15938.77"/>
    </edge>
    <edge id=":1018_11" function="internal">
        <lane id=":1018_11_0" index="0" speed="7.38" length="11.92" shape="16179.55,15936.08 16182.80,15935.92 16185.08,15938.41 16186.27,15943.56"/>
    </edge>
    <edge id=":1018_12" function="internal">
        <lane id=":1018_12_0" index="0" speed="3.65" length="3.23" shape="16176.39,15938.77 16177.21,15939.13 16177.41,15940.00 16177.00,15941.38"/>
    </edge>
    <edge id=":1020_0" function="internal">
        <lane id=":1020_0_0" index="0" speed="6.18" length="11.01" shape="17827.57,17530.01 17830.85,17530.16 17832.75,17531.32 17833.28,17533.48 17832.43,17536.65"/>
    </edge>
    <edge id=":1020_1" function="internal">
        <lane id=":1020_1_0" index="0" speed="3.96" length="3.67" shape="17829.48,17535.41 17829.76,17534.36 17829.59,17533.64 17828.95,17533.25 17827.86,17533.20"/>
    </edge>
    <edge id=":1022_0" function="internal">
        <lane id=":1022_0_0" index="0" speed="10.61" length="15.67" shape="12833.75,19886.40 12831.75,19882.70 12829.15,19879.90 12825.94,19878.02 12822.13,19877.05"/>
    </edge>
    <edge id=":1022_1" function="internal">
        <lane id=":1022_1_0" index="0" speed="13.89" length="19.20" shape="12833.75,19886.40 12826.85,19868.48"/>
    </edge>
    <edge id=":1022_2" function="internal">
        <lane id=":1022_2_0" index="0" speed="7.39" length="5.24" shape="12833.75,19886.40 12832.41,19881.34"/>
    </edge>
    <edge id=":1022_3" function="internal">
        <lane id=":1022_3_0" index="0" speed="3.65" length="1.44" shape="12833.75,19886.40 12834.04,19884.99"/>
    </edge>
    <edge id=":1022_16" function="internal">
        <lane id=":1022_16_0" index="0" speed="7.39" length="11.99" shape="12832.41,19881.34 12833.26,19878.07 12836.30,19876.60 12841.53,19876.93"/>
    </edge>
    <edge id=":1022_17" function="internal">
        <lane id=":1022_17_0" index="0" speed="3.65" length="3.23" shape="12834.04,19884.99 12834.63,19884.31 12835.52,19884.38 12836.71,19885.19"/>
    </edge>
    <edge id=":1022_4" function="internal">
        <lane id=":1022_4_0" index="0" speed="5.61" length="9.31" shape="12840.91,19880.08 12838.09,19879.90 12836.45,19880.69 12835.99,19882.45 12836.71,19885.19"/>
    </edge>
    <edge id=":1022_5" function="internal">
        <lane id=":1022_5_0" index="0" speed="13.89" length="19.02" shape="12840.91,19880.08 12822.13,19877.05"/>
    </edge>
    <edge id=":1022_6" function="internal">
        <lane id=":1022_6_0" index="0" speed="11.76" length="5.02" shape="12840.91,19880.08 12836.72,19878.50 12836.27,19878.20"/>
    </edge>
    <edge id=":1022_7" function="internal">
        <lane id=":1022_7_0" index="0" speed="3.65" length="1.44" shape="12840.91,19880.08 12839.89,19879.06"/>
    </edge>
    <edge id=":1022_18" function="internal">
        <lane id=":1022_18_0" index="0" speed="11.76" length="13.75" shape="12836.27,19878.20 12832.53,19875.68 12829.02,19872.16 12826.85,19868.48"/>
    </edge>
    <edge id=":1022_19" function="internal">
        <lane id=":1022_19_0" index="0" speed="3.65" length="3.23" shape="12839.89,19879.06 12839.65,19878.20 12840.19,19877.49 12841.53,19876.93"/>
    </edge>
    <edge id=":1022_8" function="internal">
        <lane id=":1022_8_0" index="0" speed="10.82" length="15.80" shape="12829.86,19867.40 12831.64,19870.92 12834.18,19873.69 12837.48,19875.69 12841.53,19876.93"/>
    </edge>
    <edge id=":1022_9" function="internal">
        <lane id=":1022_9_0" index="0" speed="13.89" length="19.07" shape="12829.86,19867.40 12836.71,19885.19"/>
    </edge>
    <edge id=":1022_10" function="internal">
        <lane id=":1022_10_0" index="0" speed="7.43" length="4.55" shape="12829.86,19867.40 12830.81,19871.84"/>
    </edge>
    <edge id=":1022_11" function="internal">
        <lane id=":1022_11_0" index="0" speed="3.65" length="1.44" shape="12829.86,19867.40 12829.51,19868.80"/>
    </edge>
    <edge id=":1022_20" function="internal">
        <lane id=":1022_20_0" index="0" speed="7.43" length="11.90" shape="12830.81,19871.84 12830.88,19872.17 12829.93,19875.37 12827.02,19877.00 12822.13,19877.05"/>
    </edge>
    <edge id=":1022_21" function="internal">
        <lane id=":1022_21_0" index="0" speed="3.65" length="3.23" shape="12829.51,19868.80 12828.90,19869.44 12828.01,19869.34 12826.85,19868.48"/>
    </edge>
    <edge id=":1022_12" function="internal">
        <lane id=":1022_12_0" index="0" speed="5.73" length="9.19" shape="12822.53,19873.88 12825.26,19873.85 12826.89,19872.94 12827.42,19871.15 12826.85,19868.48"/>
    </edge>
    <edge id=":1022_13" function="internal">
        <lane id=":1022_13_0" index="0" speed="13.89" length="19.24" shape="12822.53,19873.88 12841.53,19876.93"/>
    </edge>
    <edge id=":1022_14" function="internal">
        <lane id=":1022_14_0" index="0" speed="11.56" length="5.49" shape="12822.53,19873.88 12826.58,19875.21 12827.61,19875.87"/>
    </edge>
    <edge id=":1022_15" function="internal">
        <lane id=":1022_15_0" index="0" speed="3.65" length="1.44" shape="12822.53,19873.88 12823.62,19874.82"/>
    </edge>
    <edge id=":1022_22" function="internal">
        <lane id=":1022_22_0" index="0" speed="11.56" length="13.22" shape="12827.61,19875.87 12830.74,19877.89 12834.34,19881.39 12836.71,19885.19"/>
    </edge>
    <edge id=":1022_23" function="internal">
        <lane id=":1022_23_0" index="0" speed="3.65" length="3.23" shape="12823.62,19874.82 12823.92,19875.66 12823.42,19876.41 12822.13,19877.05"/>
    </edge>
    <edge id=":1026_0" function="internal">
        <lane id=":1026_0_0" index="0" speed="6.42" length="13.68" shape="11818.30,19751.37 11814.11,19750.34 11812.29,19748.59 11812.85,19746.13 11815.78,19742.96"/>
    </edge>
    <edge id=":1026_1" function="internal">
        <lane id=":1026_1_0" index="0" speed="4.08" length="4.56" shape="11817.86,19745.39 11816.88,19746.45 11816.70,19747.27 11817.30,19747.85 11818.70,19748.19"/>
    </edge>
    <edge id=":1033_0" function="internal">
        <lane id=":1033_0_0" index="0" speed="6.10" length="9.71" shape="3179.32,14226.17 3178.13,14223.63 3178.20,14221.58 3179.52,14220.00 3182.09,14218.90"/>
    </edge>
    <edge id=":1033_1" function="internal">
        <lane id=":1033_1_0" index="0" speed="3.92" length="3.24" shape="3182.92,14221.99 3182.06,14222.36 3181.62,14222.88 3181.60,14223.57 3182.00,14224.41"/>
    </edge>
    <edge id=":1037_0" function="internal">
        <lane id=":1037_0_0" index="0" speed="6.76" length="16.72" shape="4274.80,15883.51 4273.86,15888.96 4272.08,15891.16 4269.46,15890.10 4265.99,15885.79"/>
    </edge>
    <edge id=":1037_1" function="internal">
        <lane id=":1037_1_0" index="0" speed="4.26" length="5.57" shape="4268.67,15884.04 4269.83,15885.47 4270.70,15885.83 4271.29,15885.09 4271.61,15883.28"/>
    </edge>
    <edge id=":1041_0" function="internal">
        <lane id=":1041_0_0" index="0" speed="13.89" length="1.02" shape="1709.08,20215.55 1709.13,20215.85 1709.16,20216.06 1709.17,20216.26 1709.16,20216.57"/>
    </edge>
    <edge id=":1041_1" function="internal">
        <lane id=":1041_1_0" index="0" speed="13.89" length="0.34" shape="1705.96,20216.49 1705.96,20216.39 1705.96,20216.32 1705.95,20216.25 1705.93,20216.15"/>
    </edge>
    <edge id=":1049_0" function="internal">
        <lane id=":1049_0_0" index="0" speed="3.96" length="1.99" shape="3505.79,4744.97 3505.36,4744.67 3504.91,4744.53 3504.44,4744.55 3503.95,4744.73"/>
    </edge>
    <edge id=":1049_1" function="internal">
        <lane id=":1049_1_0" index="0" speed="6.18" length="5.97" shape="3502.46,4741.90 3503.93,4741.35 3505.34,4741.29 3506.68,4741.71 3507.96,4742.63"/>
    </edge>
    <edge id=":1051_0" function="internal">
        <lane id=":1051_0_0" index="0" speed="6.94" length="7.52" shape="5123.04,7284.25 5121.36,7283.29 5119.63,7282.93 5117.85,7283.18 5116.01,7284.04"/>
    </edge>
    <edge id=":1051_1" function="internal">
        <lane id=":1051_1_0" index="0" speed="13.25" length="11.48" shape="5123.04,7284.25 5120.58,7282.19 5118.93,7280.27 5117.77,7278.02 5116.74,7274.97"/>
    </edge>
    <edge id=":1051_2" function="internal">
        <lane id=":1051_2_0" index="0" speed="3.65" length="1.44" shape="5123.04,7284.25 5122.57,7282.88"/>
    </edge>
    <edge id=":1051_9" function="internal">
        <lane id=":1051_9_0" index="0" speed="3.65" length="3.23" shape="5122.57,7282.88 5122.74,7282.00 5123.54,7281.61 5124.98,7281.71"/>
    </edge>
    <edge id=":1051_3" function="internal">
        <lane id=":1051_3_0" index="0" speed="12.08" length="9.50" shape="5119.81,7274.07 5120.66,7276.73 5121.51,7278.49 5122.81,7279.95 5124.98,7281.71"/>
    </edge>
    <edge id=":1051_4" function="internal">
        <lane id=":1051_4_0" index="0" speed="8.10" length="3.34" shape="5119.81,7274.07 5120.29,7277.10 5120.24,7277.36"/>
    </edge>
    <edge id=":1051_5" function="internal">
        <lane id=":1051_5_0" index="0" speed="3.65" length="1.44" shape="5119.81,7274.07 5119.39,7275.44"/>
    </edge>
    <edge id=":1051_10" function="internal">
        <lane id=":1051_10_0" index="0" speed="8.10" length="8.24" shape="5120.24,7277.36 5119.81,7279.77 5118.39,7282.09 5116.01,7284.04"/>
    </edge>
    <edge id=":1051_11" function="internal">
        <lane id=":1051_11_0" index="0" speed="3.65" length="3.23" shape="5119.39,7275.44 5118.73,7276.05 5117.85,7275.90 5116.74,7274.97"/>
    </edge>
    <edge id=":1051_6" function="internal">
        <lane id=":1051_6_0" index="0" speed="6.58" length="7.37" shape="5114.33,7281.32 5115.84,7280.08 5116.74,7278.60 5117.05,7276.90 5116.74,7274.97"/>
    </edge>
    <edge id=":1051_7" function="internal">
        <lane id=":1051_7_0" index="0" speed="8.41" length="11.41" shape="5114.33,7281.32 5117.09,7280.04 5119.79,7279.68 5122.42,7280.23 5124.98,7281.71"/>
    </edge>
    <edge id=":1051_8" function="internal">
        <lane id=":1051_8_0" index="0" speed="3.65" length="1.44" shape="5114.33,7281.32 5115.77,7281.36"/>
    </edge>
    <edge id=":1051_12" function="internal">
        <lane id=":1051_12_0" index="0" speed="3.65" length="3.23" shape="5115.77,7281.36 5116.53,7281.83 5116.61,7282.72 5116.01,7284.04"/>
    </edge>
    <edge id=":1055_0" function="internal">
        <lane id=":1055_0_0" index="0" speed="3.92" length="2.32" shape="5631.40,3942.16 5630.79,3942.06 5630.26,3942.16 5629.83,3942.47 5629.48,3942.98"/>
    </edge>
    <edge id=":1055_1" function="internal">
        <lane id=":1055_1_0" index="0" speed="6.10" length="6.95" shape="5626.60,3941.58 5627.65,3940.03 5628.95,3939.10 5630.53,3938.80 5632.37,3939.11"/>
    </edge>
    <edge id=":1059_0" function="internal">
        <lane id=":1059_0_0" index="0" speed="6.35" length="4.76" shape="15503.64,16500.31 15502.61,16500.99 15501.52,16501.36 15500.38,16501.44 15499.17,16501.21"/>
    </edge>
    <edge id=":1059_1" function="internal">
        <lane id=":1059_1_0" index="0" speed="4.05" length="1.59" shape="15500.10,16498.15 15500.51,16498.22 15500.89,16498.20 15501.25,16498.08 15501.59,16497.85"/>
    </edge>
    <edge id=":1061_0" function="internal">
        <lane id=":1061_0_0" index="0" speed="13.89" length="0.84" shape="17448.07,15051.57 17447.82,15051.60 17447.66,15051.64 17447.50,15051.71 17447.30,15051.85"/>
    </edge>
    <edge id=":1061_1" function="internal">
        <lane id=":1061_1_0" index="0" speed="7.63" length="2.51" shape="17445.47,15049.23 17446.08,15048.81 17446.54,15048.58 17447.04,15048.46 17447.78,15048.38"/>
    </edge>
    <edge id=":1063_0" function="internal">
        <lane id=":1063_0_0" index="0" speed="6.88" length="10.15" shape="17235.11,18981.51 17232.05,18981.70 17229.82,18982.63 17228.41,18984.30 17227.83,18986.72"/>
    </edge>
    <edge id=":1063_1" function="internal">
        <lane id=":1063_1_0" index="0" speed="13.89" length="16.18" shape="17235.11,18981.51 17231.19,18981.14 17227.09,18980.42 17223.07,18979.37 17219.38,18978.02"/>
    </edge>
    <edge id=":1063_2" function="internal">
        <lane id=":1063_2_0" index="0" speed="7.53" length="4.89" shape="17235.11,18981.51 17230.65,18980.64 17230.38,18980.42"/>
    </edge>
    <edge id=":1063_3" function="internal">
        <lane id=":1063_3_0" index="0" speed="3.65" length="1.44" shape="17235.11,18981.51 17233.95,18980.65"/>
    </edge>
    <edge id=":1063_16" function="internal">
        <lane id=":1063_16_0" index="0" speed="7.53" length="10.81" shape="17230.38,18980.42 17228.06,18978.58 17227.34,18975.36 17228.49,18970.96"/>
    </edge>
    <edge id=":1063_17" function="internal">
        <lane id=":1063_17_0" index="0" speed="3.65" length="3.23" shape="17233.95,18980.65 17233.60,18979.83 17234.04,18979.05 17235.28,18978.32"/>
    </edge>
    <edge id=":1063_4" function="internal">
        <lane id=":1063_4_0" index="0" speed="5.89" length="9.11" shape="17231.44,18972.20 17230.77,18974.75 17231.19,18976.62 17232.69,18977.81 17235.28,18978.32"/>
    </edge>
    <edge id=":1063_5" function="internal">
        <lane id=":1063_5_0" index="0" speed="13.89" length="15.03" shape="17231.44,18972.20 17230.11,18975.71 17229.03,18979.32 17228.25,18982.99 17227.83,18986.72"/>
    </edge>
    <edge id=":1063_6" function="internal">
        <lane id=":1063_6_0" index="0" speed="8.24" length="4.24" shape="17231.44,18972.20 17229.33,18975.88"/>
    </edge>
    <edge id=":1063_7" function="internal">
        <lane id=":1063_7_0" index="0" speed="3.65" length="1.44" shape="17231.44,18972.20 17230.24,18973.00"/>
    </edge>
    <edge id=":1063_18" function="internal">
        <lane id=":1063_18_0" index="0" speed="8.24" length="11.06" shape="17229.33,18975.88 17229.22,18976.08 17226.46,18978.34 17223.19,18978.99 17219.38,18978.02"/>
    </edge>
    <edge id=":1063_19" function="internal">
        <lane id=":1063_19_0" index="0" speed="3.65" length="3.23" shape="17230.24,18973.00 17229.35,18973.06 17228.76,18972.38 17228.49,18970.96"/>
    </edge>
    <edge id=":1063_8" function="internal">
        <lane id=":1063_8_0" index="0" speed="6.81" length="10.09" shape="17220.66,18975.09 17223.09,18975.68 17225.20,18975.18 17227.00,18973.61 17228.49,18970.96"/>
    </edge>
    <edge id=":1063_9" function="internal">
        <lane id=":1063_9_0" index="0" speed="13.89" length="15.04" shape="17220.66,18975.09 17224.18,18976.40 17227.82,18977.35 17231.53,18977.98 17235.28,18978.32"/>
    </edge>