<?xml version="1.0" encoding="UTF-8"?>

<!-- generated on 2025-04-14 12:45:23 by Eclipse SUMO netgenerate Version 1.22.0
<netgenerateConfiguration xmlns:xsi="http://www.w3.org/2001/XMLSchema-instance" xsi:noNamespaceSchemaLocation="http://sumo.dlr.de/xsd/netgenerateConfiguration.xsd">

    <random_network>
        <rand value="true"/>
        <rand.iterations value="501"/>
        <rand.max-distance value="1223.6732152566342"/>
        <rand.min-distance value="150.0"/>
        <rand.min-angle value="42.55175044409026"/>
        <rand.neighbor-dist1 value="3.0"/>
        <rand.neighbor-dist2 value="1.0"/>
        <rand.neighbor-dist3 value="0.0"/>
        <rand.neighbor-dist4 value="5.0"/>
        <rand.neighbor-dist5 value="0.0"/>
        <rand.neighbor-dist6 value="0.0"/>
    </random_network>

    <output>
        <output-file value="configs/rand-configs/rand0.net.xml"/>
    </output>

    <tls_building>
        <tls.guess value="true"/>
        <tls.guess.threshold value="0"/>
    </tls_building>

</netgenerateConfiguration>
-->

<net version="1.20" junctionCornerDetail="5" limitTurnSpeed="5.50" xmlns:xsi="http://www.w3.org/2001/XMLSchema-instance" xsi:noNamespaceSchemaLocation="http://sumo.dlr.de/xsd/net_file.xsd">

    <location netOffset="6435.11,11535.99" convBoundary="0.00,0.00,13342.62,22591.55" origBoundary="-6435.11,-11535.99,6907.51,11055.56" projParameter="!"/>

    <edge id=":1_0" function="internal">
        <lane id=":1_0_0" index="0" speed="11.26" length="16.20" shape="6433.62,11543.39 6433.00,11540.17 6431.22,11537.03 6428.29,11533.96 6424.20,11530.97"/>
    </edge>
    <edge id=":1_1" function="internal">
        <lane id=":1_1_0" index="0" speed="13.89" length="18.84" shape="6433.62,11543.39 6433.31,11539.06 6432.61,11534.04 6431.70,11529.05 6430.77,11524.80"/>
    </edge>
    <edge id=":1_2" function="internal">
        <lane id=":1_2_0" index="0" speed="7.91" length="3.57" shape="6433.62,11543.39 6434.08,11539.85"/>
    </edge>
    <edge id=":1_3" function="internal">
        <lane id=":1_3_0" index="0" speed="3.65" length="1.44" shape="6433.62,11543.39 6434.40,11542.18"/>
    </edge>
    <edge id=":1_16" function="internal">
        <lane id=":1_16_0" index="0" speed="7.91" length="10.83" shape="6434.08,11539.85 6434.13,11539.45 6435.78,11536.68 6438.58,11535.09 6442.54,11534.67"/>
    </edge>
    <edge id=":1_17" function="internal">
        <lane id=":1_17_0" index="0" speed="3.65" length="3.23" shape="6434.40,11542.18 6435.20,11541.77 6436.00,11542.15 6436.82,11543.34"/>
    </edge>
    <edge id=":1_4" function="internal">
        <lane id=":1_4_0" index="0" speed="6.39" length="9.04" shape="6442.42,11537.87 6439.94,11538.13 6438.18,11539.13 6437.14,11540.87 6436.82,11543.34"/>
    </edge>
    <edge id=":1_5" function="internal">
        <lane id=":1_5_0" index="0" speed="13.89" length="19.61" shape="6442.42,11537.87 6438.06,11537.09 6433.02,11535.35 6428.13,11533.15 6424.20,11530.97"/>
    </edge>
    <edge id=":1_6" function="internal">
        <lane id=":1_6_0" index="0" speed="10.07" length="4.78" shape="6442.42,11537.87 6438.98,11536.56 6438.16,11535.82"/>
    </edge>
    <edge id=":1_7" function="internal">
        <lane id=":1_7_0" index="0" speed="3.65" length="1.44" shape="6442.42,11537.87 6441.25,11537.02"/>
    </edge>
    <edge id=":1_18" function="internal">
        <lane id=":1_18_0" index="0" speed="10.07" length="13.48" shape="6438.16,11535.82 6435.50,11533.40 6432.56,11529.21 6430.77,11524.80"/>
    </edge>
    <edge id=":1_19" function="internal">
        <lane id=":1_19_0" index="0" speed="3.65" length="3.23" shape="6441.25,11537.02 6440.88,11536.21 6441.31,11535.43 6442.54,11534.67"/>
    </edge>
    <edge id=":1_8" function="internal">
        <lane id=":1_8_0" index="0" speed="9.08" length="14.69" shape="6433.88,11524.05 6435.36,11528.61 6437.30,11531.90 6439.69,11533.92 6442.54,11534.67"/>
    </edge>
    <edge id=":1_9" function="internal">
        <lane id=":1_9_0" index="0" speed="13.89" length="19.54" shape="6433.88,11524.05 6434.83,11528.41 6435.76,11533.64 6436.49,11538.90 6436.82,11543.34"/>
    </edge>
    <edge id=":1_10" function="internal">
        <lane id=":1_10_0" index="0" speed="7.43" length="6.42" shape="6433.88,11524.05 6434.67,11530.26 6434.61,11530.41"/>
    </edge>
    <edge id=":1_11" function="internal">
        <lane id=":1_11_0" index="0" speed="3.65" length="1.44" shape="6433.88,11524.05 6433.39,11525.40"/>
    </edge>
    <edge id=":1_20" function="internal">
        <lane id=":1_20_0" index="0" speed="7.43" length="13.09" shape="6434.61,11530.41 6433.31,11533.48 6429.83,11533.72 6424.20,11530.97"/>
    </edge>
    <edge id=":1_21" function="internal">
        <lane id=":1_21_0" index="0" speed="3.65" length="3.23" shape="6433.39,11525.40 6432.70,11525.98 6431.83,11525.78 6430.77,11524.80"/>
    </edge>
    <edge id=":1_12" function="internal">
        <lane id=":1_12_0" index="0" speed="5.47" length="9.79" shape="6425.92,11528.27 6428.74,11529.65 6430.49,11529.53 6431.17,11527.91 6430.77,11524.80"/>
    </edge>
    <edge id=":1_13" function="internal">
        <lane id=":1_13_0" index="0" speed="13.89" length="17.96" shape="6425.92,11528.27 6429.59,11530.37 6433.94,11532.40 6438.43,11533.97 6442.54,11534.67"/>
    </edge>
    <edge id=":1_14" function="internal">
        <lane id=":1_14_0" index="0" speed="12.18" length="5.03" shape="6425.92,11528.27 6429.82,11531.44"/>
    </edge>
    <edge id=":1_15" function="internal">
        <lane id=":1_15_0" index="0" speed="3.65" length="1.44" shape="6425.92,11528.27 6426.50,11529.59"/>
    </edge>
    <edge id=":1_22" function="internal">
        <lane id=":1_22_0" index="0" speed="12.18" length="14.02" shape="6429.82,11531.44 6433.31,11535.51 6435.83,11539.72 6436.82,11543.34"/>
    </edge>
    <edge id=":1_23" function="internal">
        <lane id=":1_23_0" index="0" speed="3.65" length="3.23" shape="6426.50,11529.59 6426.41,11530.48 6425.64,11530.94 6424.20,11530.97"/>
    </edge>
    <edge id=":10_0" function="internal">
        <lane id=":10_0_0" index="0" speed="6.03" length="9.07" shape="5556.37,10660.95 5555.25,10658.62 5553.71,10657.42 5551.76,10657.34 5549.40,10658.38"/>
    </edge>
    <edge id=":10_1" function="internal">
        <lane id=":10_1_0" index="0" speed="13.89" length="15.04" shape="5556.37,10660.95 5555.04,10657.44 5553.32,10654.09 5551.23,10650.95 5548.81,10648.09"/>
    </edge>
    <edge id=":10_2" function="internal">
        <lane id=":10_2_0" index="0" speed="8.18" length="3.68" shape="5556.37,10660.95 5555.72,10657.33"/>
    </edge>
    <edge id=":10_3" function="internal">
        <lane id=":10_3_0" index="0" speed="3.65" length="1.44" shape="5556.37,10660.95 5556.77,10659.56"/>
    </edge>
    <edge id=":10_16" function="internal">
        <lane id=":10_16_0" index="0" speed="8.18" length="11.28" shape="5555.72,10657.33 5555.61,10656.72 5556.27,10653.33 5558.35,10650.78 5561.86,10649.05"/>
    </edge>
    <edge id=":10_17" function="internal">
        <lane id=":10_17_0" index="0" speed="3.65" length="3.23" shape="5556.77,10659.56 5557.41,10658.94 5558.30,10659.08 5559.42,10659.98"/>
    </edge>
    <edge id=":10_4" function="internal">
        <lane id=":10_4_0" index="0" speed="6.73" length="9.77" shape="5562.81,10652.11 5560.59,10653.22 5559.28,10654.91 5558.89,10657.16 5559.42,10659.98"/>
    </edge>
    <edge id=":10_5" function="internal">
        <lane id=":10_5_0" index="0" speed="13.89" length="14.85" shape="5562.81,10652.11 5559.29,10653.34 5555.90,10654.81 5552.61,10656.49 5549.40,10658.38"/>
    </edge>
    <edge id=":10_6" function="internal">
        <lane id=":10_6_0" index="0" speed="10.21" length="3.87" shape="5562.81,10652.11 5558.99,10652.77"/>
    </edge>
    <edge id=":10_7" function="internal">
        <lane id=":10_7_0" index="0" speed="3.65" length="1.44" shape="5562.81,10652.11 5561.42,10651.70"/>
    </edge>
    <edge id=":10_18" function="internal">
        <lane id=":10_18_0" index="0" speed="10.21" length="11.52" shape="5558.99,10652.77 5555.39,10652.32 5551.99,10650.76 5548.81,10648.09"/>
    </edge>
    <edge id=":10_19" function="internal">
        <lane id=":10_19_0" index="0" speed="3.65" length="3.23" shape="5561.42,10651.70 5560.81,10651.05 5560.95,10650.17 5561.86,10649.05"/>
    </edge>
    <edge id=":10_8" function="internal">
        <lane id=":10_8_0" index="0" speed="9.01" length="11.83" shape="5551.12,10645.88 5553.59,10647.96 5556.20,10649.18 5558.96,10649.54 5561.86,10649.05"/>
    </edge>
    <edge id=":10_9" function="internal">
        <lane id=":10_9_0" index="0" speed="13.89" length="16.47" shape="5551.12,10645.88 5553.66,10648.94 5556.00,10652.50 5557.97,10656.27 5559.42,10659.98"/>
    </edge>
    <edge id=":10_10" function="internal">
        <lane id=":10_10_0" index="0" speed="7.72" length="4.85" shape="5551.12,10645.88 5553.58,10649.34 5553.67,10649.94"/>
    </edge>
    <edge id=":10_11" function="internal">
        <lane id=":10_11_0" index="0" speed="3.65" length="1.44" shape="5551.12,10645.88 5551.37,10647.30"/>
    </edge>
    <edge id=":10_20" function="internal">
        <lane id=":10_20_0" index="0" speed="7.72" length="10.33" shape="5553.67,10649.94 5554.10,10652.58 5552.71,10655.60 5549.40,10658.38"/>
    </edge>
    <edge id=":10_21" function="internal">
        <lane id=":10_21_0" index="0" speed="3.65" length="3.23" shape="5551.37,10647.30 5551.07,10648.14 5550.22,10648.40 5548.81,10648.09"/>
    </edge>
    <edge id=":10_12" function="internal">
        <lane id=":10_12_0" index="0" speed="6.16" length="9.21" shape="5547.70,10655.67 5549.73,10653.97 5550.59,10652.14 5550.28,10650.18 5548.81,10648.09"/>
    </edge>
    <edge id=":10_13" function="internal">
        <lane id=":10_13_0" index="0" speed="13.89" length="15.67" shape="5547.70,10655.67 5551.03,10653.72 5554.58,10651.92 5558.23,10650.34 5561.86,10649.05"/>
    </edge>
    <edge id=":10_14" function="internal">
        <lane id=":10_14_0" index="0" speed="7.63" length="4.61" shape="5547.70,10655.67 5551.67,10653.91 5551.94,10653.92"/>
    </edge>
    <edge id=":10_15" function="internal">
        <lane id=":10_15_0" index="0" speed="3.65" length="1.44" shape="5547.70,10655.67 5549.14,10655.71"/>
    </edge>
    <edge id=":10_22" function="internal">
        <lane id=":10_22_0" index="0" speed="7.63" length="10.63" shape="5551.94,10653.92 5554.95,10654.05 5557.53,10656.07 5559.42,10659.98"/>
    </edge>
    <edge id=":10_23" function="internal">
        <lane id=":10_23_0" index="0" speed="3.65" length="3.23" shape="5549.14,10655.71 5549.90,10656.18 5549.99,10657.07 5549.40,10658.38"/>
    </edge>
    <edge id=":10070_0" function="internal">
        <lane id=":10070_0_0" index="0" speed="13.89" length="18.26" shape="8242.83,3041.04 8238.56,3040.98 8233.68,3041.20 8228.84,3041.73 8224.70,3042.66"/>
    </edge>
    <edge id=":10070_1" function="internal">
        <lane id=":10070_1_0" index="0" speed="11.17" length="20.12" shape="8242.83,3041.04 8237.03,3040.21 8232.41,3038.28 8228.97,3035.27 8226.71,3031.16"/>
    </edge>
    <edge id=":10070_2" function="internal">
        <lane id=":10070_2_0" index="0" speed="7.42" length="19.30" shape="8242.83,3041.04 8236.74,3040.08 8234.03,3037.89 8234.70,3034.47 8238.76,3029.82"/>
    </edge>
    <edge id=":10070_3" function="internal">
        <lane id=":10070_3_0" index="0" speed="3.65" length="1.44" shape="8242.83,3041.04 8241.66,3040.19"/>
    </edge>
    <edge id=":10070_16" function="internal">
        <lane id=":10070_16_0" index="0" speed="3.65" length="3.23" shape="8241.66,3040.19 8241.30,3039.37 8241.74,3038.59 8242.97,3037.84"/>
    </edge>
    <edge id=":10070_4" function="internal">
        <lane id=":10070_4_0" index="0" speed="5.47" length="9.74" shape="8240.92,3032.18 8238.87,3034.53 8238.53,3036.25 8239.90,3037.36 8242.97,3037.84"/>
    </edge>
    <edge id=":10070_5" function="internal">
        <lane id=":10070_5_0" index="0" speed="13.89" length="19.40" shape="8240.92,3032.18 8237.50,3035.03 8233.21,3038.12 8228.73,3040.86 8224.70,3042.66"/>
    </edge>
    <edge id=":10070_6" function="internal">
        <lane id=":10070_6_0" index="0" speed="7.93" length="18.16" shape="8240.92,3032.18 8236.12,3035.70 8232.15,3036.70 8229.02,3035.18 8226.71,3031.16"/>
    </edge>
    <edge id=":10070_7" function="internal">
        <lane id=":10070_7_0" index="0" speed="3.65" length="1.44" shape="8240.92,3032.18 8239.49,3032.40"/>
    </edge>
    <edge id=":10070_17" function="internal">
        <lane id=":10070_17_0" index="0" speed="3.65" length="3.23" shape="8239.49,3032.40 8238.66,3032.08 8238.41,3031.22 8238.76,3029.82"/>
    </edge>
    <edge id=":10070_8" function="internal">
        <lane id=":10070_8_0" index="0" speed="6.40" length="11.35" shape="8229.72,3030.08 8231.10,3032.33 8233.06,3033.03 8235.62,3032.20 8238.76,3029.82"/>
    </edge>
    <edge id=":10070_9" function="internal">
        <lane id=":10070_9_0" index="0" speed="10.10" length="16.33" shape="8229.72,3030.08 8231.53,3033.30 8234.34,3035.66 8238.15,3037.18 8242.97,3037.84"/>
    </edge>
    <edge id=":10070_10" function="internal">
        <lane id=":10070_10_0" index="0" speed="8.24" length="15.54" shape="8229.72,3030.08 8230.73,3034.56 8230.23,3038.15 8228.22,3040.85 8224.70,3042.66"/>
    </edge>
    <edge id=":10070_11" function="internal">
        <lane id=":10070_11_0" index="0" speed="3.65" length="1.44" shape="8229.72,3030.08 8229.37,3031.48"/>
    </edge>
    <edge id=":10070_18" function="internal">
        <lane id=":10070_18_0" index="0" speed="3.65" length="3.23" shape="8229.37,3031.48 8228.76,3032.13 8227.87,3032.02 8226.71,3031.16"/>
    </edge>
    <edge id=":10070_12" function="internal">
        <lane id=":10070_12_0" index="0" speed="6.81" length="10.25" shape="8223.73,3039.61 8225.94,3038.44 8227.17,3036.64 8227.43,3034.21 8226.71,3031.16"/>
    </edge>
    <edge id=":10070_13" function="internal">
        <lane id=":10070_13_0" index="0" speed="13.89" length="18.03" shape="8223.73,3039.61 8227.57,3037.91 8231.65,3035.41 8235.52,3032.56 8238.76,3029.82"/>
    </edge>
    <edge id=":10070_14" function="internal">
        <lane id=":10070_14_0" index="0" speed="13.89" length="19.38" shape="8223.73,3039.61 8228.04,3038.66 8233.26,3038.07 8238.53,3037.81 8242.97,3037.84"/>
    </edge>
    <edge id=":10070_15" function="internal">
        <lane id=":10070_15_0" index="0" speed="3.65" length="1.44" shape="8223.73,3039.61 8225.12,3040.01"/>
    </edge>
    <edge id=":10070_19" function="internal">
        <lane id=":10070_19_0" index="0" speed="3.65" length="3.23" shape="8225.12,3040.01 8225.74,3040.65 8225.60,3041.53 8224.70,3042.66"/>
    </edge>
    <edge id=":10076_0" function="internal">
        <lane id=":10076_0_0" index="0" speed="6.52" length="14.65" shape="9184.68,3080.14 9189.33,3080.86 9191.37,3082.50 9190.81,3085.06 9187.64,3088.54"/>
    </edge>
    <edge id=":10076_1" function="internal">
        <lane id=":10076_1_0" index="0" speed="4.14" length="4.88" shape="9185.52,3086.13 9186.58,3084.98 9186.77,3084.12 9186.09,3083.58 9184.54,3083.33"/>
    </edge>
    <edge id=":10079_0" function="internal">
        <lane id=":10079_0_0" index="0" speed="6.15" length="6.24" shape="7673.29,1423.00 7671.66,1422.70 7670.38,1421.98 7669.45,1420.85 7668.86,1419.31"/>
    </edge>
    <edge id=":10079_1" function="internal">
        <lane id=":10079_1_0" index="0" speed="3.94" length="2.08" shape="7671.97,1418.57 7672.17,1419.09 7672.48,1419.46 7672.91,1419.70 7673.45,1419.80"/>
    </edge>
    <edge id=":10081_0" function="internal">
        <lane id=":10081_0_0" index="0" speed="13.89" length="0.47" shape="8143.33,1744.49 8143.32,1744.36 8143.31,1744.26 8143.29,1744.17 8143.25,1744.04"/>
    </edge>
    <edge id=":10081_1" function="internal">
        <lane id=":10081_1_0" index="0" speed="13.89" length="1.40" shape="8146.31,1743.09 8146.43,1743.48 8146.49,1743.76 8146.52,1744.04 8146.53,1744.46"/>
    </edge>
    <edge id=":10085_0" function="internal">
        <lane id=":10085_0_0" index="0" speed="6.08" length="9.19" shape="8085.36,452.69 8087.96,452.54 8089.79,453.31 8090.84,454.99 8091.11,457.59"/>
    </edge>
    <edge id=":10085_1" function="internal">
        <lane id=":10085_1_0" index="0" speed="3.91" length="3.06" shape="8087.91,457.46 8087.82,456.60 8087.47,456.03 8086.86,455.78 8085.99,455.83"/>
    </edge>
    <edge id=":10095_0" function="internal">
        <lane id=":10095_0_0" index="0" speed="6.20" length="5.72" shape="1544.31,9086.99 1545.09,9088.28 1545.41,9089.60 1545.29,9090.95 1544.72,9092.34"/>
    </edge>
    <edge id=":10095_1" function="internal">
        <lane id=":10095_1_0" index="0" speed="3.97" length="1.91" shape="1541.93,9090.76 1542.13,9090.29 1542.17,9089.84 1542.06,9089.40 1541.80,9088.97"/>
    </edge>
    <edge id=":10099_0" function="internal">
        <lane id=":10099_0_0" index="0" speed="6.11" length="9.99" shape="597.66,8465.65 594.79,8465.24 593.09,8464.02 592.55,8461.99 593.19,8459.16"/>
    </edge>
    <edge id=":10099_1" function="internal">
        <lane id=":10099_1_0" index="0" speed="3.92" length="3.33" shape="596.18,8460.29 595.97,8461.23 596.15,8461.91 596.72,8462.32 597.67,8462.45"/>
    </edge>
    <edge id=":10101_0" function="internal">
        <lane id=":10101_0_0" index="0" speed="13.15" length="14.66" shape="1163.70,7373.71 1160.98,7376.31 1158.58,7379.11 1156.79,7382.22 1155.89,7385.73"/>
    </edge>
    <edge id=":10101_1" function="internal">
        <lane id=":10101_1_0" index="0" speed="10.67" length="20.01" shape="1163.70,7373.71 1159.31,7376.78 1154.78,7378.15 1150.10,7377.82 1145.28,7375.79"/>
    </edge>
    <edge id=":10101_2" function="internal">
        <lane id=":10101_2_0" index="0" speed="7.38" length="8.23" shape="1163.70,7373.71 1159.18,7376.89 1156.48,7377.14"/>
    </edge>
    <edge id=":10101_3" function="internal">
        <lane id=":10101_3_0" index="0" speed="3.65" length="1.44" shape="1163.70,7373.71 1162.27,7373.93"/>
    </edge>
    <edge id=":10101_16" function="internal">
        <lane id=":10101_16_0" index="0" speed="7.38" length="9.62" shape="1156.48,7377.14 1155.79,7377.21 1153.53,7374.67 1152.39,7369.26"/>
    </edge>
    <edge id=":10101_17" function="internal">
        <lane id=":10101_17_0" index="0" speed="3.65" length="3.23" shape="1162.27,7373.93 1161.44,7373.60 1161.20,7372.74 1161.55,7371.34"/>
    </edge>
    <edge id=":10101_4" function="internal">
        <lane id=":10101_4_0" index="0" speed="5.55" length="9.42" shape="1155.58,7369.00 1156.18,7371.85 1157.37,7373.19 1159.16,7373.02 1161.55,7371.34"/>
    </edge>
    <edge id=":10101_5" function="internal">
        <lane id=":10101_5_0" index="0" speed="13.89" length="16.75" shape="1155.58,7369.00 1155.87,7373.01 1156.07,7377.36 1156.10,7381.71 1155.89,7385.73"/>
    </edge>
    <edge id=":10101_6" function="internal">
        <lane id=":10101_6_0" index="0" speed="7.42" length="5.50" shape="1155.58,7369.00 1155.36,7374.49"/>
    </edge>
    <edge id=":10101_7" function="internal">
        <lane id=":10101_7_0" index="0" speed="3.65" length="1.44" shape="1155.58,7369.00 1154.88,7370.26"/>
    </edge>
    <edge id=":10101_18" function="internal">
        <lane id=":10101_18_0" index="0" speed="7.42" length="12.21" shape="1155.36,7374.49 1153.57,7377.45 1150.21,7377.89 1145.28,7375.79"/>
    </edge>
    <edge id=":10101_19" function="internal">
        <lane id=":10101_19_0" index="0" speed="3.65" length="3.23" shape="1154.88,7370.26 1154.12,7370.72 1153.29,7370.39 1152.39,7369.26"/>
    </edge>
    <edge id=":10101_8" function="internal">
        <lane id=":10101_8_0" index="0" speed="5.63" length="9.56" shape="1146.90,7373.03 1149.53,7374.14 1151.33,7373.89 1152.28,7372.26 1152.39,7369.26"/>
    </edge>
    <edge id=":10101_9" function="internal">
        <lane id=":10101_9_0" index="0" speed="9.56" length="15.92" shape="1146.90,7373.03 1150.72,7374.64 1154.44,7374.89 1158.05,7373.79 1161.55,7371.34"/>
    </edge>
    <edge id=":10101_10" function="internal">
        <lane id=":10101_10_0" index="0" speed="10.39" length="3.29" shape="1146.90,7373.03 1149.60,7374.92"/>
    </edge>
    <edge id=":10101_11" function="internal">
        <lane id=":10101_11_0" index="0" speed="3.65" length="1.31" shape="1146.90,7373.03 1147.47,7374.21"/>
    </edge>
    <edge id=":10101_20" function="internal">
        <lane id=":10101_20_0" index="0" speed="10.39" length="13.11" shape="1149.60,7374.92 1151.08,7375.95 1153.97,7379.04 1155.58,7382.30 1155.89,7385.73"/>
    </edge>
    <edge id=":10101_21" function="internal">
        <lane id=":10101_21_0" index="0" speed="3.65" length="3.36" shape="1147.47,7374.21 1147.53,7374.33 1147.47,7375.22 1146.72,7375.71 1145.28,7375.79"/>
    </edge>
    <edge id=":10101_12" function="internal">
        <lane id=":10101_12_0" index="0" speed="9.22" length="12.79" shape="1152.70,7385.43 1152.42,7382.95 1151.08,7380.52 1148.70,7378.13 1145.28,7375.79"/>
    </edge>
    <edge id=":10101_13" function="internal">
        <lane id=":10101_13_0" index="0" speed="13.89" length="16.19" shape="1152.70,7385.43 1152.91,7381.50 1152.88,7377.35 1152.68,7373.19 1152.39,7369.26"/>
    </edge>
    <edge id=":10101_14" function="internal">
        <lane id=":10101_14_0" index="0" speed="13.89" length="3.32" shape="1152.70,7385.43 1153.59,7382.23"/>
    </edge>
    <edge id=":10101_15" function="internal">
        <lane id=":10101_15_0" index="0" speed="3.65" length="1.44" shape="1152.70,7385.43 1153.61,7384.31"/>
    </edge>
    <edge id=":10101_22" function="internal">
        <lane id=":10101_22_0" index="0" speed="13.89" length="13.60" shape="1153.59,7382.23 1153.76,7381.60 1155.91,7377.78 1158.67,7374.26 1161.55,7371.34"/>
    </edge>
    <edge id=":10101_23" function="internal">
        <lane id=":10101_23_0" index="0" speed="3.65" length="3.23" shape="1153.61,7384.31 1154.45,7383.98 1155.20,7384.46 1155.89,7385.73"/>
    </edge>
    <edge id=":10103_0" function="internal">
        <lane id=":10103_0_0" index="0" speed="10.03" length="1.74" shape="2734.65,9070.19 2734.35,9069.78 2734.16,9069.47 2734.03,9069.15 2733.88,9068.65"/>
    </edge>
    <edge id=":10103_1" function="internal">
        <lane id=":10103_1_0" index="0" speed="13.89" length="0.58" shape="2736.95,9067.75 2737.00,9067.91 2737.04,9068.02 2737.10,9068.12 2737.21,9068.26"/>
    </edge>
    <edge id=":10106_0" function="internal">
        <lane id=":10106_0_0" index="0" speed="13.89" length="0.10" shape="4086.92,7754.68 4086.85,7754.60"/>
    </edge>
    <edge id=":10106_1" function="internal">
        <lane id=":10106_1_0" index="0" speed="13.89" length="0.30" shape="4089.32,7752.57 4089.51,7752.80"/>
    </edge>
    <edge id=":10108_0" function="internal">
        <lane id=":10108_0_0" index="0" speed="4.00" length="1.74" shape="4588.74,6690.31 4588.28,6690.29 4587.88,6690.39 4587.52,6690.60 4587.20,6690.93"/>
    </edge>
    <edge id=":10108_1" function="internal">
        <lane id=":10108_1_0" index="0" speed="6.27" length="5.23" shape="4584.64,6689.01 4585.58,6688.02 4586.66,6687.38 4587.88,6687.09 4589.25,6687.15"/>
    </edge>
    <edge id=":10110_0" function="internal">
        <lane id=":10110_0_0" index="0" speed="5.62" length="9.30" shape="3690.68,7317.82 3688.47,7316.07 3686.67,7315.78 3685.27,7316.96 3684.28,7319.60"/>
    </edge>
    <edge id=":10110_1" function="internal">
        <lane id=":10110_1_0" index="0" speed="13.89" length="15.85" shape="3690.68,7317.82 3687.90,7315.10 3684.85,7312.44 3681.61,7310.03 3678.29,7308.05"/>
    </edge>
    <edge id=":10110_2" function="internal">
        <lane id=":10110_2_0" index="0" speed="9.05" length="5.02" shape="3690.68,7317.82 3687.56,7313.89"/>
    </edge>
    <edge id=":10110_3" function="internal">
        <lane id=":10110_3_0" index="0" speed="3.65" length="1.44" shape="3690.68,7317.82 3690.42,7316.41"/>
    </edge>
    <edge id=":10110_16" function="internal">
        <lane id=":10110_16_0" index="0" speed="9.05" length="11.29" shape="3687.56,7313.89 3686.04,7310.16 3686.10,7306.63 3687.76,7303.29"/>
    </edge>
    <edge id=":10110_17" function="internal">
        <lane id=":10110_17_0" index="0" speed="3.65" length="3.23" shape="3690.42,7316.41 3690.71,7315.56 3691.57,7315.29 3692.98,7315.60"/>
    </edge>
    <edge id=":10110_4" function="internal">
        <lane id=":10110_4_0" index="0" speed="7.75" length="11.72" shape="3690.31,7305.23 3689.26,7307.48 3689.35,7309.96 3690.59,7312.66 3692.98,7315.60"/>
    </edge>
    <edge id=":10110_5" function="internal">
        <lane id=":10110_5_0" index="0" speed="13.89" length="15.69" shape="3690.31,7305.23 3688.25,7308.47 3686.59,7312.08 3685.28,7315.86 3684.28,7319.60"/>
    </edge>
    <edge id=":10110_6" function="internal">
        <lane id=":10110_6_0" index="0" speed="8.40" length="3.18" shape="3690.31,7305.23 3688.06,7307.48"/>
    </edge>
    <edge id=":10110_7" function="internal">
        <lane id=":10110_7_0" index="0" speed="3.65" length="1.44" shape="3690.31,7305.23 3688.95,7305.70"/>
    </edge>
    <edge id=":10110_18" function="internal">
        <lane id=":10110_18_0" index="0" speed="8.40" length="10.41" shape="3688.06,7307.48 3687.73,7307.82 3684.86,7309.15 3681.72,7309.23 3678.29,7308.05"/>
    </edge>
    <edge id=":10110_19" function="internal">
        <lane id=":10110_19_0" index="0" speed="3.65" length="3.23" shape="3688.95,7305.70 3688.07,7305.53 3687.68,7304.73 3687.76,7303.29"/>
    </edge>
    <edge id=":10110_8" function="internal">
        <lane id=":10110_8_0" index="0" speed="6.98" length="9.08" shape="3679.73,7305.20 3682.02,7305.98 3684.12,7305.93 3686.03,7305.03 3687.76,7303.29"/>
    </edge>
    <edge id=":10110_9" function="internal">
        <lane id=":10110_9_0" index="0" speed="13.89" length="16.90" shape="3679.73,7305.20 3683.19,7307.27 3686.72,7309.90 3690.06,7312.77 3692.98,7315.60"/>
    </edge>
    <edge id=":10110_10" function="internal">
        <lane id=":10110_10_0" index="0" speed="9.42" length="4.08" shape="3679.73,7305.20 3682.67,7307.44 3682.85,7307.78"/>
    </edge>
    <edge id=":10110_11" function="internal">
        <lane id=":10110_11_0" index="0" speed="3.65" length="1.44" shape="3679.73,7305.20 3680.44,7306.45"/>
    </edge>
    <edge id=":10110_20" function="internal">
        <lane id=":10110_20_0" index="0" speed="9.42" length="12.31" shape="3682.85,7307.78 3684.40,7310.59 3684.94,7314.64 3684.28,7319.60"/>
    </edge>
    <edge id=":10110_21" function="internal">
        <lane id=":10110_21_0" index="0" speed="3.65" length="3.23" shape="3680.44,7306.45 3680.44,7307.35 3679.72,7307.88 3678.29,7308.05"/>
    </edge>
    <edge id=":10110_12" function="internal">
        <lane id=":10110_12_0" index="0" speed="8.16" length="12.10" shape="3681.16,7318.88 3681.72,7315.06 3681.42,7311.98 3680.28,7309.65 3678.29,7308.05"/>
    </edge>
    <edge id=":10110_13" function="internal">
        <lane id=":10110_13_0" index="0" speed="13.89" length="17.02" shape="3681.16,7318.88 3682.25,7314.95 3683.76,7310.75 3685.62,7306.72 3687.76,7303.29"/>
    </edge>
    <edge id=":10110_14" function="internal">
        <lane id=":10110_14_0" index="0" speed="7.39" length="5.51" shape="3681.16,7318.88 3682.99,7314.00 3683.22,7313.80"/>
    </edge>
    <edge id=":10110_15" function="internal">
        <lane id=":10110_15_0" index="0" speed="3.65" length="1.44" shape="3681.16,7318.88 3682.21,7317.89"/>
    </edge>
    <edge id=":10110_22" function="internal">
        <lane id=":10110_22_0" index="0" speed="7.39" length="11.64" shape="3683.22,7313.80 3685.57,7311.83 3688.90,7312.36 3692.98,7315.60"/>
    </edge>
    <edge id=":10110_23" function="internal">
        <lane id=":10110_23_0" index="0" speed="3.65" length="3.23" shape="3682.21,7317.89 3683.08,7317.68 3683.77,7318.25 3684.28,7319.60"/>
    </edge>
    <edge id=":10117_0" function="internal">
        <lane id=":10117_0_0" index="0" speed="6.27" length="12.15" shape="4438.42,9677.22 4441.36,9679.49 4442.28,9681.66 4441.16,9683.74 4438.01,9685.72"/>
    </edge>
    <edge id=":10117_1" function="internal">
        <lane id=":10117_1_0" index="0" speed="4.00" length="4.05" shape="4436.66,9682.81 4437.71,9682.15 4438.09,9681.46 4437.78,9680.74 4436.80,9679.98"/>
    </edge>
    <edge id=":10125_0" function="internal">
        <lane id=":10125_0_0" index="0" speed="6.10" length="9.60" shape="2800.87,10132.70 2798.11,10132.59 2796.32,10131.60 2795.51,10129.73 2795.67,10126.98"/>
    </edge>
    <edge id=":10125_1" function="internal">
        <lane id=":10125_1_0" index="0" speed="3.92" length="3.20" shape="2798.80,10127.61 2798.75,10128.52 2799.02,10129.15 2799.62,10129.48 2800.54,10129.51"/>
    </edge>
    <edge id=":10148_0" function="internal">
        <lane id=":10148_0_0" index="0" speed="6.23" length="11.76" shape="7961.63,8920.92 7964.91,8919.51 7967.21,8919.76 7968.53,8921.66 7968.87,8925.21"/>
    </edge>
    <edge id=":10148_1" function="internal">
        <lane id=":10148_1_0" index="0" speed="3.99" length="3.92" shape="7965.67,8925.10 7965.56,8923.92 7965.12,8923.28 7964.35,8923.20 7963.26,8923.67"/>
    </edge>
    <edge id=":10150_0" function="internal">
        <lane id=":10150_0_0" index="0" speed="3.65" length="4.67" shape="7464.17,8425.35 7463.76,8423.96 7463.97,8423.09 7464.79,8422.74 7466.23,8422.90"/>
    </edge>
    <edge id=":10158_0" function="internal">
        <lane id=":10158_0_0" index="0" speed="13.89" length="15.85" shape="8034.33,8195.63 8031.25,8198.00 8028.23,8200.72 8025.52,8203.70 8023.32,8206.88"/>
    </edge>
    <edge id=":10158_1" function="internal">
        <lane id=":10158_1_0" index="0" speed="10.95" length="19.72" shape="8034.33,8195.63 8029.85,8198.00 8025.29,8198.79 8020.63,8198.00 8015.89,8195.64"/>
    </edge>
    <edge id=":10158_2" function="internal">