<?xml version="1.0" encoding="UTF-8"?>

<!-- generated on 2025-04-13 03:47:21 by Eclipse SUMO netgenerate Version 1.22.0
<netgenerateConfiguration xmlns:xsi="http://www.w3.org/2001/XMLSchema-instance" xsi:noNamespaceSchemaLocation="http://sumo.dlr.de/xsd/netgenerateConfiguration.xsd">

    <random_network>
        <rand value="true"/>
        <rand.iterations value="9"/>
        <rand.max-distance value="1266.6366300220252"/>
        <rand.min-distance value="150.0"/>
        <rand.min-angle value="30.403520313969963"/>
        <rand.neighbor-dist1 value="3.0"/>
        <rand.neighbor-dist2 value="1.0"/>
        <rand.neighbor-dist3 value="0.0"/>
        <rand.neighbor-dist4 value="5.0"/>
        <rand.neighbor-dist5 value="0.0"/>
        <rand.neighbor-dist6 value="0.0"/>
    </random_network>

    <output>
        <output-file value="configs/rand-configs/rand0.net.xml"/>
    </output>

    <tls_building>
        <tls.guess value="true"/>
        <tls.guess.threshold value="0"/>
    </tls_building>

</netgenerateConfiguration>
-->

<net version="1.20" junctionCornerDetail="5" limitTurnSpeed="5.50" xmlns:xsi="http://www.w3.org/2001/XMLSchema-instance" xsi:noNamespaceSchemaLocation="http://sumo.dlr.de/xsd/net_file.xsd">

    <location netOffset="907.74,1113.29" convBoundary="0.00,0.00,1889.06,2848.28" origBoundary="-907.74,-1113.29,981.32,1734.99" projParameter="!"/>

    <edge id=":1_0" function="internal">
        <lane id=":1_0_0" index="0" speed="11.26" length="16.20" shape="906.25,1120.69 905.63,1117.47 903.85,1114.33 900.92,1111.26 896.83,1108.27"/>
    </edge>
    <edge id=":1_1" function="internal">
        <lane id=":1_1_0" index="0" speed="13.89" length="18.84" shape="906.25,1120.69 905.94,1116.36 905.24,1111.34 904.33,1106.35 903.40,1102.09"/>
    </edge>
    <edge id=":1_2" function="internal">
        <lane id=":1_2_0" index="0" speed="7.91" length="3.57" shape="906.25,1120.69 906.71,1117.14"/>
    </edge>
    <edge id=":1_3" function="internal">
        <lane id=":1_3_0" index="0" speed="3.65" length="1.44" shape="906.25,1120.69 907.03,1119.48"/>
    </edge>
    <edge id=":1_16" function="internal">
        <lane id=":1_16_0" index="0" speed="7.91" length="10.83" shape="906.71,1117.14 906.76,1116.74 908.41,1113.98 911.21,1112.38 915.17,1111.97"/>
    </edge>
    <edge id=":1_17" function="internal">
        <lane id=":1_17_0" index="0" speed="3.65" length="3.23" shape="907.03,1119.48 907.83,1119.06 908.63,1119.45 909.45,1120.64"/>
    </edge>
    <edge id=":1_4" function="internal">
        <lane id=":1_4_0" index="0" speed="6.39" length="9.04" shape="915.05,1115.17 912.57,1115.43 910.81,1116.43 909.77,1118.16 909.45,1120.64"/>
    </edge>
    <edge id=":1_5" function="internal">
        <lane id=":1_5_0" index="0" speed="13.89" length="19.61" shape="915.05,1115.17 910.69,1114.38 905.65,1112.65 900.76,1110.45 896.83,1108.27"/>
    </edge>
    <edge id=":1_6" function="internal">
        <lane id=":1_6_0" index="0" speed="10.07" length="4.78" shape="915.05,1115.17 911.61,1113.85 910.79,1113.11"/>
    </edge>
    <edge id=":1_7" function="internal">
        <lane id=":1_7_0" index="0" speed="3.65" length="1.44" shape="915.05,1115.17 913.88,1114.32"/>
    </edge>
    <edge id=":1_18" function="internal">
        <lane id=":1_18_0" index="0" speed="10.07" length="13.48" shape="910.79,1113.11 908.13,1110.70 905.19,1106.51 903.40,1102.09"/>
    </edge>
    <edge id=":1_19" function="internal">
        <lane id=":1_19_0" index="0" speed="3.65" length="3.23" shape="913.88,1114.32 913.51,1113.51 913.94,1112.72 915.17,1111.97"/>
    </edge>
    <edge id=":1_8" function="internal">
        <lane id=":1_8_0" index="0" speed="9.08" length="14.69" shape="906.51,1101.34 907.99,1105.90 909.93,1109.20 912.32,1111.22 915.17,1111.97"/>
    </edge>
    <edge id=":1_9" function="internal">
        <lane id=":1_9_0" index="0" speed="13.89" length="19.54" shape="906.51,1101.34 907.46,1105.71 908.39,1110.94 909.12,1116.20 909.45,1120.64"/>
    </edge>
    <edge id=":1_10" function="internal">
        <lane id=":1_10_0" index="0" speed="7.43" length="6.42" shape="906.51,1101.34 907.30,1107.56 907.24,1107.70"/>
    </edge>
    <edge id=":1_11" function="internal">
        <lane id=":1_11_0" index="0" speed="3.65" length="1.44" shape="906.51,1101.34 906.02,1102.70"/>
    </edge>
    <edge id=":1_20" function="internal">
        <lane id=":1_20_0" index="0" speed="7.43" length="13.09" shape="907.24,1107.70 905.94,1110.78 902.46,1111.02 896.83,1108.27"/>
    </edge>
    <edge id=":1_21" function="internal">
        <lane id=":1_21_0" index="0" speed="3.65" length="3.23" shape="906.02,1102.70 905.33,1103.27 904.46,1103.07 903.40,1102.09"/>
    </edge>
    <edge id=":1_12" function="internal">
        <lane id=":1_12_0" index="0" speed="5.47" length="9.79" shape="898.55,1105.56 901.37,1106.94 903.12,1106.82 903.80,1105.21 903.40,1102.09"/>
    </edge>
    <edge id=":1_13" function="internal">
        <lane id=":1_13_0" index="0" speed="13.89" length="17.96" shape="898.55,1105.56 902.22,1107.67 906.57,1109.70 911.06,1111.26 915.17,1111.97"/>
    </edge>
    <edge id=":1_14" function="internal">
        <lane id=":1_14_0" index="0" speed="12.18" length="5.03" shape="898.55,1105.56 902.45,1108.74"/>
    </edge>
    <edge id=":1_15" function="internal">
        <lane id=":1_15_0" index="0" speed="3.65" length="1.44" shape="898.55,1105.56 899.13,1106.88"/>
    </edge>
    <edge id=":1_22" function="internal">
        <lane id=":1_22_0" index="0" speed="12.18" length="14.02" shape="902.45,1108.74 905.94,1112.80 908.46,1117.01 909.45,1120.64"/>
    </edge>
    <edge id=":1_23" function="internal">
        <lane id=":1_23_0" index="0" speed="3.65" length="3.23" shape="899.13,1106.88 899.04,1107.77 898.27,1108.23 896.83,1108.27"/>
    </edge>
    <edge id=":10_0" function="internal">
        <lane id=":10_0_0" index="0" speed="3.65" length="4.67" shape="0.47,200.26 -0.91,199.85 -1.53,199.20 -1.38,198.32 -0.47,197.20"/>
    </edge>
    <edge id=":16_0" function="internal">
        <lane id=":16_0_0" index="0" speed="6.16" length="6.11" shape="64.85,1418.57 63.72,1417.42 63.09,1416.13 62.96,1414.69 63.33,1413.12"/>
    </edge>
    <edge id=":16_1" function="internal">
        <lane id=":16_1_0" index="0" speed="3.95" length="2.04" shape="66.33,1414.24 66.20,1414.77 66.25,1415.25 66.46,1415.68 66.83,1416.06"/>
    </edge>
    <edge id=":19_0" function="internal">
        <lane id=":19_0_0" index="0" speed="3.65" length="4.67" shape="1736.61,1397.33 1738.04,1397.16 1738.87,1397.51 1739.08,1398.38 1738.69,1399.77"/>
    </edge>
    <edge id=":2_0" function="internal">
        <lane id=":2_0_0" index="0" speed="3.90" length="2.70" shape="639.65,3.70 639.38,3.00 638.95,2.58 638.36,2.42 637.62,2.54"/>
    </edge>
    <edge id=":2_1" function="internal">
        <lane id=":2_1_0" index="0" speed="6.07" length="8.11" shape="636.67,-0.52 638.89,-0.87 640.64,-0.41 641.94,0.86 642.76,2.95"/>
    </edge>
    <edge id=":21_0" function="internal">
        <lane id=":21_0_0" index="0" speed="3.65" length="4.67" shape="987.89,2848.14 987.19,2849.41 986.43,2849.87 985.60,2849.54 984.70,2848.41"/>
    </edge>
    <edge id=":4_0" function="internal">
        <lane id=":4_0_0" index="0" speed="3.91" length="2.99" shape="320.11,742.50 319.34,742.15 318.69,742.17 318.17,742.55 317.76,743.29"/>
    </edge>
    <edge id=":4_1" function="internal">
        <lane id=":4_1_0" index="0" speed="6.08" length="8.97" shape="314.76,742.17 315.98,739.94 317.57,738.81 319.51,738.76 321.83,739.80"/>
    </edge>
    <edge id=":6_0" function="internal">
        <lane id=":6_0_0" index="0" speed="12.02" length="14.22" shape="922.00,2098.87 921.33,2096.33 919.72,2093.62 917.18,2090.75 913.71,2087.73"/>
    </edge>
    <edge id=":6_1" function="internal">
        <lane id=":6_1_0" index="0" speed="13.89" length="16.54" shape="922.00,2098.87 921.36,2082.35"/>
    </edge>
    <edge id=":6_2" function="internal">
        <lane id=":6_2_0" index="0" speed="11.79" length="3.81" shape="922.00,2098.87 922.32,2095.58 922.52,2095.12"/>
    </edge>
    <edge id=":6_3" function="internal">
        <lane id=":6_3_0" index="0" speed="3.65" length="1.44" shape="922.00,2098.87 922.70,2097.61"/>
    </edge>
    <edge id=":6_16" function="internal">
        <lane id=":6_16_0" index="0" speed="11.79" length="13.01" shape="922.52,2095.12 923.81,2092.16 926.47,2088.59 930.30,2084.89"/>
    </edge>
    <edge id=":6_17" function="internal">
        <lane id=":6_17_0" index="0" speed="3.65" length="3.23" shape="922.70,2097.61 923.46,2097.14 924.29,2097.47 925.19,2098.60"/>
    </edge>
    <edge id=":6_4" function="internal">
        <lane id=":6_4_0" index="0" speed="10.72" length="13.79" shape="932.38,2087.33 929.08,2090.46 926.79,2093.38 925.49,2096.10 925.19,2098.60"/>
    </edge>
    <edge id=":6_5" function="internal">
        <lane id=":6_5_0" index="0" speed="10.28" length="20.49" shape="932.38,2087.33 927.76,2090.30 923.10,2091.36 918.42,2090.50 913.71,2087.73"/>
    </edge>
    <edge id=":6_6" function="internal">
        <lane id=":6_6_0" index="0" speed="7.38" length="8.61" shape="932.38,2087.33 927.64,2090.47 924.72,2090.66"/>
    </edge>
    <edge id=":6_7" function="internal">
        <lane id=":6_7_0" index="0" speed="3.65" length="1.44" shape="932.38,2087.33 930.95,2087.50"/>
    </edge>
    <edge id=":6_18" function="internal">
        <lane id=":6_18_0" index="0" speed="7.38" length="9.60" shape="924.72,2090.66 924.22,2090.69 922.13,2087.98 921.36,2082.35"/>
    </edge>
    <edge id=":6_19" function="internal">
        <lane id=":6_19_0" index="0" speed="3.65" length="3.23" shape="930.95,2087.50 930.12,2087.15 929.91,2086.28 930.30,2084.89"/>
    </edge>
    <edge id=":6_8" function="internal">
        <lane id=":6_8_0" index="0" speed="5.52" length="9.49" shape="924.56,2082.30 924.96,2085.23 926.05,2086.64 927.83,2086.53 930.30,2084.89"/>
    </edge>
    <edge id=":6_9" function="internal">
        <lane id=":6_9_0" index="0" speed="13.89" length="16.32" shape="924.56,2082.30 925.19,2098.60"/>
    </edge>
    <edge id=":6_10" function="internal">
        <lane id=":6_10_0" index="0" speed="7.39" length="4.94" shape="924.56,2082.30 924.04,2087.21"/>
    </edge>
    <edge id=":6_11" function="internal">
        <lane id=":6_11_0" index="0" speed="3.65" length="1.44" shape="924.56,2082.30 923.78,2083.51"/>
    </edge>
    <edge id=":6_20" function="internal">
        <lane id=":6_20_0" index="0" speed="7.39" length="13.24" shape="924.04,2087.21 923.96,2087.95 921.96,2090.73 918.54,2090.66 913.71,2087.73"/>
    </edge>
    <edge id=":6_21" function="internal">
        <lane id=":6_21_0" index="0" speed="3.65" length="3.23" shape="923.78,2083.51 922.98,2083.92 922.18,2083.54 921.36,2082.35"/>
    </edge>
    <edge id=":6_12" function="internal">
        <lane id=":6_12_0" index="0" speed="5.54" length="9.52" shape="915.69,2085.21 918.21,2086.75 920.00,2086.78 921.05,2085.31 921.36,2082.35"/>
    </edge>
    <edge id=":6_13" function="internal">
        <lane id=":6_13_0" index="0" speed="9.15" length="16.04" shape="915.69,2085.21 919.38,2087.38 923.04,2088.05 926.68,2087.22 930.30,2084.89"/>
    </edge>
    <edge id=":6_14" function="internal">
        <lane id=":6_14_0" index="0" speed="13.05" length="3.62" shape="915.69,2085.21 918.40,2087.61"/>
    </edge>
    <edge id=":6_15" function="internal">
        <lane id=":6_15_0" index="0" speed="3.65" length="1.31" shape="915.69,2085.21 916.09,2086.46"/>
    </edge>
    <edge id=":6_22" function="internal">
        <lane id=":6_22_0" index="0" speed="13.05" length="13.21" shape="918.40,2087.61 919.65,2088.70 922.55,2092.10 924.40,2095.40 925.19,2098.60"/>
    </edge>
    <edge id=":6_23" function="internal">
        <lane id=":6_23_0" index="0" speed="3.65" length="3.37" shape="916.09,2086.46 916.14,2086.59 915.96,2087.46 915.15,2087.84 913.71,2087.73"/>
    </edge>
    <edge id=":8_0" function="internal">
        <lane id=":8_0_0" index="0" speed="3.65" length="4.67" shape="1889.12,1148.92 1890.29,1149.76 1890.66,1150.58 1890.23,1151.36 1889.00,1152.12"/>
    </edge>

    <edge id="-11" from="10" to="2" priority="-1">
        <lane id="-11_0" index="0" speed="13.89" length="667.12" shape="-0.47,197.20 636.67,-0.52"/>
    </edge>
    <edge id="-17" from="16" to="4" priority="-1">
        <lane id="-17_0" index="0" speed="13.89" length="716.52" shape="63.33,1413.12 314.76,742.17"/>
    </edge>
    <edge id="-18" from="16" to="6" priority="-1">
        <lane id="-18_0" index="0" speed="13.89" length="1080.89" shape="66.83,1416.06 915.69,2085.21"/>
    </edge>
    <edge id="-20" from="19" to="6" priority="-1">
        <lane id="-20_0" index="0" speed="13.89" length="1059.66" shape="1738.69,1399.77 932.38,2087.33"/>
    </edge>
    <edge id="-22" from="21" to="6" priority="-1">
        <lane id="-22_0" index="0" speed="13.89" length="752.16" shape="984.70,2848.41 922.00,2098.87"/>
    </edge>
    <edge id="-3" from="2" to="1" priority="-1">
        <lane id="-3_0" index="0" speed="13.89" length="1129.62" shape="642.76,2.95 906.51,1101.34"/>
    </edge>
    <edge id="-5" from="4" to="1" priority="-1">
        <lane id="-5_0" index="0" speed="13.89" length="682.93" shape="321.83,739.80 898.55,1105.56"/>
    </edge>
    <edge id="-7" from="6" to="1" priority="-1">
        <lane id="-7_0" index="0" speed="13.89" length="961.78" shape="921.36,2082.35 906.25,1120.69"/>
    </edge>
    <edge id="-9" from="8" to="1" priority="-1">
        <lane id="-9_0" index="0" speed="13.89" length="974.65" shape="1889.00,1152.12 915.05,1115.17"/>
    </edge>
    <edge id="11" from="2" to="10" priority="-1">
        <lane id="11_0" index="0" speed="13.89" length="667.12" shape="637.62,2.54 0.47,200.26"/>
    </edge>
    <edge id="17" from="4" to="16" priority="-1">
        <lane id="17_0" index="0" speed="13.89" length="716.52" shape="317.76,743.29 66.33,1414.24"/>
    </edge>
    <edge id="18" from="6" to="16" priority="-1">
        <lane id="18_0" index="0" speed="13.89" length="1080.89" shape="913.71,2087.73 64.85,1418.57"/>
    </edge>
    <edge id="20" from="6" to="19" priority="-1">
        <lane id="20_0" index="0" speed="13.89" length="1059.66" shape="930.30,2084.89 1736.61,1397.33"/>
    </edge>
    <edge id="22" from="6" to="21" priority="-1">
        <lane id="22_0" index="0" speed="13.89" length="752.16" shape="925.19,2098.60 987.89,2848.14"/>
    </edge>
    <edge id="3" from="1" to="2" priority="-1">
        <lane id="3_0" index="0" speed="13.89" length="1129.62" shape="903.40,1102.09 639.65,3.70"/>
    </edge>
    <edge id="5" from="1" to="4" priority="-1">
        <lane id="5_0" index="0" speed="13.89" length="682.93" shape="896.83,1108.27 320.11,742.50"/>
    </edge>
    <edge id="7" from="1" to="6" priority="-1">
        <lane id="7_0" index="0" speed="13.89" length="961.78" shape="909.45,1120.64 924.56,2082.30"/>
    </edge>
    <edge id="9" from="1" to="8" priority="-1">
        <lane id="9_0" index="0" speed="13.89" length="974.65" shape="915.17,1111.97 1889.12,1148.92"/>
    </edge>

    <tlLogic id="1" type="static" programID="0" offset="0">
        <phase duration="42" state="GGggrrrrGGggrrrr"/>
        <phase duration="3"  state="yyyyrrrryyyyrrrr"/>
        <phase duration="42" state="rrrrGGggrrrrGGgg"/>
        <phase duration="3"  state="rrrryyyyrrrryyyy"/>
    </tlLogic>
    <tlLogic id="6" type="static" programID="0" offset="0">
        <phase duration="42" state="GGggrrrrGGggrrrr"/>
        <phase duration="3"  state="yyyyrrrryyyyrrrr"/>
        <phase duration="42" state="rrrrGGggrrrrGGgg"/>
        <phase duration="3"  state="rrrryyyyrrrryyyy"/>
    </tlLogic>

    <junction id="1" type="traffic_light" x="907.74" y="1113.29" incLanes="-7_0 -9_0 -3_0 -5_0" intLanes=":1_0_0 :1_1_0 :1_16_0 :1_17_0 :1_4_0 :1_5_0 :1_18_0 :1_19_0 :1_8_0 :1_9_0 :1_20_0 :1_21_0 :1_12_0 :1_13_0 :1_22_0 :1_23_0" shape="904.65,1120.71 911.05,1120.61 911.46,1118.41 912.00,1117.65 912.77,1117.12 913.77,1116.83 914.99,1116.76 915.23,1110.37 912.24,1109.24 910.97,1107.93 909.85,1106.11 908.88,1103.79 908.07,1100.97 901.85,1102.47 901.99,1104.39 901.70,1104.85 901.18,1104.97 900.41,1104.76 899.40,1104.21 895.98,1109.62 898.60,1111.44 900.76,1113.27 902.44,1115.11 903.65,1116.97 904.39,1118.84">
        <request index="0"  response="0000000000000000" foes="1000010000100000" cont="0"/>
        <request index="1"  response="0100000001000000" foes="0111110001100000" cont="0"/>
        <request index="2"  response="0100001101000000" foes="0110001111100000" cont="1"/>
        <request index="3"  response="0100001000010000" foes="0100001000010000" cont="1"/>
        <request index="4"  response="0000001000000000" foes="0100001000001000" cont="0"/>
        <request index="5"  response="0000011000000111" foes="1100011000000111" cont="0"/>
        <request index="6"  response="0011011000000110" foes="0011111000000110" cont="1"/>
        <request index="7"  response="0010000100000100" foes="0010000100000100" cont="1"/>
        <request index="8"  response="0000000000000000" foes="0010000010000100" cont="0"/>
        <request index="9"  response="0100000001000000" foes="0110000001111100" cont="0"/>
        <request index="10" response="0100000001000011" foes="1110000001100011" cont="1"/>
        <request index="11" response="0001000001000010" foes="0001000001000010" cont="1"/>
        <request index="12" response="0000000000000010" foes="0000100001000010" cont="0"/>
        <request index="13" response="0000011100000110" foes="0000011111000110" cont="0"/>
        <request index="14" response="0000011000110110" foes="0000011000111110" cont="1"/>
        <request index="15" response="0000010000100001" foes="0000010000100001" cont="1"/>
    </junction>
    <junction id="10" type="priority" x="0.00" y="198.73" incLanes="11_0" intLanes=":10_0_0" shape="0.00,198.73 0.95,201.78 0.00,198.73">
        <request index="0" response="0" foes="0" cont="0"/>
    </junction>
    <junction id="16" type="priority" x="64.01" y="1415.87" incLanes="18_0 17_0" intLanes=":16_0_0 :16_1_0" shape="63.86,1419.83 67.82,1414.81 61.83,1412.56 61.33,1415.31 61.52,1416.57 62.00,1417.74 62.79,1418.83">
        <request index="0" response="00" foes="00" cont="0"/>
        <request index="1" response="00" foes="00" cont="0"/>
    </junction>
    <junction id="19" type="priority" x="1737.65" y="1398.55" incLanes="20_0" intLanes=":19_0_0" shape="1737.65,1398.55 1735.57,1396.12 1737.65,1398.55">
        <request index="0" response="0" foes="0" cont="0"/>
    </junction>
    <junction id="2" type="priority" x="640.41" y="0.00" incLanes="3_0 -11_0" intLanes=":2_0_0 :2_1_0" shape="638.10,4.07 644.32,2.57 643.65,0.60 642.71,-0.89 641.49,-1.90 640.00,-2.43 638.24,-2.48 636.20,-2.04">
        <request index="0" response="00" foes="00" cont="0"/>
        <request index="1" response="00" foes="00" cont="0"/>
    </junction>
    <junction id="21" type="priority" x="986.30" y="2848.28" incLanes="22_0" intLanes=":21_0_0" shape="986.30,2848.28 989.48,2848.01 986.30,2848.28">
        <request index="0" response="0" foes="0" cont="0"/>
    </junction>
    <junction id="4" type="priority" x="317.64" y="739.04" incLanes="5_0 -17_0" intLanes=":4_0_0 :4_1_0" shape="319.26,743.85 322.68,738.45 320.57,737.36 318.68,736.92 317.00,737.12 315.54,737.97 314.29,739.47 313.26,741.60">
        <request index="0" response="00" foes="00" cont="0"/>
        <request index="1" response="00" foes="00" cont="0"/>
    </junction>
    <junction id="6" type="traffic_light" x="923.13" y="2093.11" incLanes="-22_0 -20_0 7_0 -18_0" intLanes=":6_0_0 :6_1_0 :6_16_0 :6_17_0 :6_4_0 :6_5_0 :6_18_0 :6_19_0 :6_8_0 :6_9_0 :6_20_0 :6_21_0 :6_12_0 :6_13_0 :6_22_0 :6_23_0" shape="920.41,2099.00 926.79,2098.47 927.37,2095.60 928.28,2094.00 929.58,2092.29 931.30,2090.47 933.42,2088.55 929.26,2083.68 927.56,2084.67 926.96,2084.62 926.53,2084.21 926.26,2083.42 926.16,2082.27 919.76,2082.37 919.44,2084.35 919.02,2084.80 918.42,2084.88 917.64,2084.60 916.68,2083.96 912.72,2088.98 914.97,2090.87 916.83,2092.67 918.31,2094.38 919.40,2096.01 920.10,2097.55">
        <request index="0"  response="0000000000000000" foes="1000010000100000" cont="0"/>
        <request index="1"  response="0100000001000000" foes="0111110001100000" cont="0"/>
        <request index="2"  response="0100011101000000" foes="0110011111100000" cont="1"/>
        <request index="3"  response="0100001000010000" foes="0100001000010000" cont="1"/>
        <request index="4"  response="0000001000000000" foes="0100001000001000" cont="0"/>
        <request index="5"  response="0000011000000111" foes="1100011000000111" cont="0"/>
        <request index="6"  response="0011011000000110" foes="0111111000000110" cont="1"/>
        <request index="7"  response="0010000100000100" foes="0010000100000100" cont="1"/>
        <request index="8"  response="0000000000000000" foes="0010000010000100" cont="0"/>
        <request index="9"  response="0100000001000000" foes="0110000001111100" cont="0"/>
        <request index="10" response="0100000001000011" foes="1110000001100111" cont="1"/>
        <request index="11" response="0001000001000010" foes="0001000001000010" cont="1"/>
        <request index="12" response="0000000000000010" foes="0000100001000010" cont="0"/>
        <request index="13" response="0000011100000110" foes="0000011111000110" cont="0"/>
        <request index="14" response="0000011001110110" foes="0000011001111110" cont="1"/>
        <request index="15" response="0000010000100001" foes="0000010000100001" cont="1"/>
    </junction>
    <junction id="8" type="priority" x="1889.06" y="1150.52" incLanes="9_0" intLanes=":8_0_0" shape="1889.06,1150.52 1889.18,1147.32 1889.06,1150.52">
        <request index="0" response="0" foes="0" cont="0"/>
    </junction>

    <junction id=":1_16_0" type="internal" x="906.71" y="1117.14" incLanes=":1_2_0 -3_0" intLanes=":1_5_0 :1_6_0 :1_7_0 :1_8_0 :1_9_0 :1_13_0 :1_14_0"/>
    <junction id=":1_17_0" type="internal" x="907.03" y="1119.48" incLanes=":1_3_0 -3_0 -5_0 -9_0" intLanes=":1_4_0 :1_9_0 :1_14_0"/>
    <junction id=":1_18_0" type="internal" x="910.79" y="1113.11" incLanes=":1_6_0 -5_0" intLanes=":1_1_0 :1_2_0 :1_9_0 :1_10_0 :1_11_0 :1_12_0 :1_13_0"/>
    <junction id=":1_19_0" type="internal" x="913.88" y="1114.32" incLanes=":1_7_0 -3_0 -5_0 -7_0" intLanes=":1_2_0 :1_8_0 :1_13_0"/>
    <junction id=":1_20_0" type="internal" x="907.24" y="1107.70" incLanes=":1_10_0 -7_0" intLanes=":1_0_0 :1_1_0 :1_5_0 :1_6_0 :1_13_0 :1_14_0 :1_15_0"/>
    <junction id=":1_21_0" type="internal" x="906.02" y="1102.70" incLanes=":1_11_0 -5_0 -7_0 -9_0" intLanes=":1_1_0 :1_6_0 :1_12_0"/>
    <junction id=":1_22_0" type="internal" x="902.45" y="1108.74" incLanes=":1_14_0 -9_0" intLanes=":1_1_0 :1_2_0 :1_3_0 :1_4_0 :1_5_0 :1_9_0 :1_10_0"/>
    <junction id=":1_23_0" type="internal" x="899.13" y="1106.88" incLanes=":1_15_0 -3_0 -7_0 -9_0" intLanes=":1_0_0 :1_5_0 :1_10_0"/>
    <junction id=":6_16_0" type="internal" x="922.52" y="2095.12" incLanes=":6_2_0 7_0" intLanes=":6_5_0 :6_6_0 :6_7_0 :6_8_0 :6_9_0 :6_13_0 :6_14_0"/>
    <junction id=":6_17_0" type="internal" x="922.70" y="2097.61" incLanes=":6_3_0 -18_0 -20_0 7_0" intLanes=":6_4_0 :6_9_0 :6_14_0"/>
    <junction id=":6_18_0" type="internal" x="924.72" y="2090.66" incLanes=":6_6_0 -18_0" intLanes=":6_1_0 :6_2_0 :6_9_0 :6_10_0 :6_11_0 :6_12_0 :6_13_0"/>
    <junction id=":6_19_0" type="internal" x="930.95" y="2087.50" incLanes=":6_7_0 -18_0 -22_0 7_0" intLanes=":6_2_0 :6_8_0 :6_13_0"/>
    <junction id=":6_20_0" type="internal" x="924.04" y="2087.21" incLanes=":6_10_0 -22_0" intLanes=":6_0_0 :6_1_0 :6_5_0 :6_6_0 :6_13_0 :6_14_0 :6_15_0"/>
    <junction id=":6_21_0" type="internal" x="923.78" y="2083.51" incLanes=":6_11_0 -18_0 -20_0 -22_0" intLanes=":6_1_0 :6_6_0 :6_12_0"/>
    <junction id=":6_22_0" type="internal" x="918.40" y="2087.61" incLanes=":6_14_0 -20_0" intLanes=":6_1_0 :6_2_0 :6_3_0 :6_4_0 :6_5_0 :6_9_0 :6_10_0"/>
    <junction id=":6_23_0" type="internal" x="916.09" y="2086.46" incLanes=":6_15_0 -20_0 -22_0 7_0" intLanes=":6_0_0 :6_5_0 :6_10_0"/>

    <connection from="-11" to="-3" fromLane="0" toLane="0" via=":2_1_0" dir="l" state="M"/>
    <connection from="-17" to="-5" fromLane="0" toLane="0" via=":4_1_0" dir="l" state="M"/>
    <connection from="-18" to="-7" fromLane="0" toLane="0" via=":6_12_0" tl="6" linkIndex="12" dir="r" state="o"/>
    <connection from="-18" to="20" fromLane="0" toLane="0" via=":6_13_0" tl="6" linkIndex="13" dir="R" state="o"/>
    <connection from="-18" to="22" fromLane="0" toLane="0" via=":6_14_0" tl="6" linkIndex="14" dir="l" state="o"/>
    <connection from="-18" to="18" fromLane="0" toLane="0" via=":6_15_0" tl="6" linkIndex="15" dir="t" state="o"/>
    <connection from="-20" to="22" fromLane="0" toLane="0" via=":6_4_0" tl="6" linkIndex="4" dir="r" state="o"/>
    <connection from="-20" to="18" fromLane="0" toLane="0" via=":6_5_0" tl="6" linkIndex="5" dir="L" state="o"/>
    <connection from="-20" to="-7" fromLane="0" toLane="0" via=":6_6_0" tl="6" linkIndex="6" dir="l" state="o"/>
    <connection from="-20" to="20" fromLane="0" toLane="0" via=":6_7_0" tl="6" linkIndex="7" dir="t" state="o"/>
    <connection from="-22" to="18" fromLane="0" toLane="0" via=":6_0_0" tl="6" linkIndex="0" dir="r" state="O"/>
    <connection from="-22" to="-7" fromLane="0" toLane="0" via=":6_1_0" tl="6" linkIndex="1" dir="s" state="O"/>
    <connection from="-22" to="20" fromLane="0" toLane="0" via=":6_2_0" tl="6" linkIndex="2" dir="l" state="o"/>
    <connection from="-22" to="22" fromLane="0" toLane="0" via=":6_3_0" tl="6" linkIndex="3" dir="t" state="o"/>
    <connection from="-3" to="9" fromLane="0" toLane="0" via=":1_8_0" tl="1" linkIndex="8" dir="r" state="O"/>
    <connection from="-3" to="7" fromLane="0" toLane="0" via=":1_9_0" tl="1" linkIndex="9" dir="s" state="O"/>
    <connection from="-3" to="5" fromLane="0" toLane="0" via=":1_10_0" tl="1" linkIndex="10" dir="l" state="o"/>
    <connection from="-3" to="3" fromLane="0" toLane="0" via=":1_11_0" tl="1" linkIndex="11" dir="t" state="o"/>
    <connection from="-5" to="3" fromLane="0" toLane="0" via=":1_12_0" tl="1" linkIndex="12" dir="r" state="o"/>
    <connection from="-5" to="9" fromLane="0" toLane="0" via=":1_13_0" tl="1" linkIndex="13" dir="s" state="o"/>
    <connection from="-5" to="7" fromLane="0" toLane="0" via=":1_14_0" tl="1" linkIndex="14" dir="l" state="o"/>
    <connection from="-5" to="5" fromLane="0" toLane="0" via=":1_15_0" tl="1" linkIndex="15" dir="t" state="o"/>
    <connection from="-7" to="5" fromLane="0" toLane="0" via=":1_0_0" tl="1" linkIndex="0" dir="r" state="O"/>
    <connection from="-7" to="3" fromLane="0" toLane="0" via=":1_1_0" tl="1" linkIndex="1" dir="s" state="O"/>
    <connection from="-7" to="9" fromLane="0" toLane="0" via=":1_2_0" tl="1" linkIndex="2" dir="l" state="o"/>
    <connection from="-7" to="7" fromLane="0" toLane="0" via=":1_3_0" tl="1" linkIndex="3" dir="t" state="o"/>
    <connection from="-9" to="7" fromLane="0" toLane="0" via=":1_4_0" tl="1" linkIndex="4" dir="r" state="o"/>
    <connection from="-9" to="5" fromLane="0" toLane="0" via=":1_5_0" tl="1" linkIndex="5" dir="s" state="o"/>
    <connection from="-9" to="3" fromLane="0" toLane="0" via=":1_6_0" tl="1" linkIndex="6" dir="l" state="o"/>
    <connection from="-9" to="9" fromLane="0" toLane="0" via=":1_7_0" tl="1" linkIndex="7" dir="t" state="o"/>
    <connection from="11" to="-11" fromLane="0" toLane="0" via=":10_0_0" dir="t" state="M"/>
    <connection from="17" to="-18" fromLane="0" toLane="0" via=":16_1_0" dir="r" state="M"/>
    <connection from="18" to="-17" fromLane="0" toLane="0" via=":16_0_0" dir="l" state="M"/>
    <connection from="20" to="-20" fromLane="0" toLane="0" via=":19_0_0" dir="t" state="M"/>
    <connection from="22" to="-22" fromLane="0" toLane="0" via=":21_0_0" dir="t" state="M"/>
    <connection from="3" to="11" fromLane="0" toLane="0" via=":2_0_0" dir="r" state="M"/>
    <connection from="5" to="17" fromLane="0" toLane="0" via=":4_0_0" dir="r" state="M"/>
    <connection from="7" to="20" fromLane="0" toLane="0" via=":6_8_0" tl="6" linkIndex="8" dir="r" state="O"/>
    <connection from="7" to="22" fromLane="0" toLane="0" via=":6_9_0" tl="6" linkIndex="9" dir="s" state="O"/>
    <connection from="7" to="18" fromLane="0" toLane="0" via=":6_10_0" tl="6" linkIndex="10" dir="l" state="o"/>
    <connection from="7" to="-7" fromLane="0" toLane="0" via=":6_11_0" tl="6" linkIndex="11" dir="t" state="o"/>
    <connection from="9" to="-9" fromLane="0" toLane="0" via=":8_0_0" dir="t" state="M"/>

    <connection from=":1_0" to="5" fromLane="0" toLane="0" dir="r" state="M"/>
    <connection from=":1_1" to="3" fromLane="0" toLane="0" dir="s" state="M"/>
    <connection from=":1_2" to="9" fromLane="0" toLane="0" via=":1_16_0" dir="l" state="m"/>
    <connection from=":1_16" to="9" fromLane="0" toLane="0" dir="l" state="M"/>
    <connection from=":1_3" to="7" fromLane="0" toLane="0" via=":1_17_0" dir="t" state="m"/>
    <connection from=":1_17" to="7" fromLane="0" toLane="0" dir="t" state="M"/>
    <connection from=":1_4" to="7" fromLane="0" toLane="0" dir="r" state="M"/>
    <connection from=":1_5" to="5" fromLane="0" toLane="0" dir="s" state="M"/>
    <connection from=":1_6" to="3" fromLane="0" toLane="0" via=":1_18_0" dir="l" state="m"/>
    <connection from=":1_18" to="3" fromLane="0" toLane="0" dir="l" state="M"/>
    <connection from=":1_7" to="9" fromLane="0" toLane="0" via=":1_19_0" dir="t" state="m"/>
    <connection from=":1_19" to="9" fromLane="0" toLane="0" dir="t" state="M"/>
    <connection from=":1_8" to="9" fromLane="0" toLane="0" dir="r" state="M"/>
    <connection from=":1_9" to="7" fromLane="0" toLane="0" dir="s" state="M"/>
    <connection from=":1_10" to="5" fromLane="0" toLane="0" via=":1_20_0" dir="l" state="m"/>