<configuration><input><net-file value="rand0.net.xml" /></input></configuration>