<?xml version="1.0" encoding="UTF-8"?>

<!-- generated on 2025-04-14 12:45:25 by Eclipse SUMO netgenerate Version 1.22.0
<netgenerateConfiguration xmlns:xsi="http://www.w3.org/2001/XMLSchema-instance" xsi:noNamespaceSchemaLocation="http://sumo.dlr.de/xsd/netgenerateConfiguration.xsd">

    <random_network>
        <rand value="true"/>
        <rand.iterations value="501"/>
        <rand.max-distance value="1193.3063840116888"/>
        <rand.min-distance value="150.0"/>
        <rand.min-angle value="59.59710212900869"/>
        <rand.neighbor-dist1 value="3.0"/>
        <rand.neighbor-dist2 value="1.0"/>
        <rand.neighbor-dist3 value="0.0"/>
        <rand.neighbor-dist4 value="5.0"/>
        <rand.neighbor-dist5 value="0.0"/>
        <rand.neighbor-dist6 value="0.0"/>
    </random_network>

    <output>
        <output-file value="configs/rand-configs/rand4.net.xml"/>
    </output>

    <tls_building>
        <tls.guess value="true"/>
        <tls.guess.threshold value="0"/>
    </tls_building>

</netgenerateConfiguration>
-->

<net version="1.20" junctionCornerDetail="5" limitTurnSpeed="5.50" xmlns:xsi="http://www.w3.org/2001/XMLSchema-instance" xsi:noNamespaceSchemaLocation="http://sumo.dlr.de/xsd/net_file.xsd">

    <location netOffset="10189.77,6100.54" convBoundary="0.00,0.00,19036.75,18172.21" origBoundary="-10189.77,-6100.54,8846.98,12071.66" projParameter="!"/>

    <edge id=":1_0" function="internal">
        <lane id=":1_0_0" index="0" speed="5.98" length="9.08" shape="10188.30,6108.84 10187.89,6106.27 10186.76,6104.69 10184.91,6104.11 10182.34,6104.52"/>
    </edge>
    <edge id=":1_1" function="internal">
        <lane id=":1_1_0" index="0" speed="13.89" length="14.86" shape="10188.30,6108.84 10188.16,6105.11 10187.84,6101.43 10187.33,6097.76 10186.58,6094.11"/>
    </edge>
    <edge id=":1_2" function="internal">
        <lane id=":1_2_0" index="0" speed="8.09" length="4.36" shape="10188.30,6108.84 10188.79,6104.50"/>
    </edge>
    <edge id=":1_3" function="internal">
        <lane id=":1_3_0" index="0" speed="3.65" length="1.44" shape="10188.30,6108.84 10189.08,6107.63"/>
    </edge>
    <edge id=":1_16" function="internal">
        <lane id=":1_16_0" index="0" speed="8.09" length="10.76" shape="10188.79,6104.50 10190.44,6101.46 10193.24,6099.70 10197.20,6099.22"/>
    </edge>
    <edge id=":1_17" function="internal">
        <lane id=":1_17_0" index="0" speed="3.65" length="3.23" shape="10189.08,6107.63 10189.87,6107.22 10190.68,6107.60 10191.50,6108.79"/>
    </edge>
    <edge id=":1_4" function="internal">
        <lane id=":1_4_0" index="0" speed="6.62" length="9.76" shape="10197.08,6102.42 10194.60,6102.74 10192.84,6103.91 10191.81,6105.92 10191.50,6108.79"/>
    </edge>
    <edge id=":1_5" function="internal">
        <lane id=":1_5_0" index="0" speed="13.89" length="14.95" shape="10197.08,6102.42 10193.34,6102.46 10189.63,6102.85 10185.95,6103.54 10182.34,6104.52"/>
    </edge>
    <edge id=":1_6" function="internal">
        <lane id=":1_6_0" index="0" speed="9.03" length="3.93" shape="10197.08,6102.42 10193.20,6101.78"/>
    </edge>
    <edge id=":1_7" function="internal">
        <lane id=":1_7_0" index="0" speed="3.65" length="1.44" shape="10197.08,6102.42 10195.91,6101.58"/>
    </edge>
    <edge id=":1_18" function="internal">
        <lane id=":1_18_0" index="0" speed="9.03" length="10.59" shape="10193.20,6101.78 10190.16,6100.18 10187.95,6097.63 10186.58,6094.11"/>
    </edge>
    <edge id=":1_19" function="internal">
        <lane id=":1_19_0" index="0" speed="3.65" length="3.23" shape="10195.91,6101.58 10195.54,6100.76 10195.97,6099.98 10197.20,6099.22"/>
    </edge>
    <edge id=":1_8" function="internal">
        <lane id=":1_8_0" index="0" speed="7.70" length="10.32" shape="10189.69,6093.37 10190.66,6095.84 10192.24,6097.64 10194.42,6098.77 10197.20,6099.22"/>
    </edge>
    <edge id=":1_9" function="internal">
        <lane id=":1_9_0" index="0" speed="13.89" length="15.56" shape="10189.69,6093.37 10190.45,6097.12 10191.00,6101.03 10191.34,6104.96 10191.50,6108.79"/>
    </edge>
    <edge id=":1_10" function="internal">
        <lane id=":1_10_0" index="0" speed="8.41" length="4.08" shape="10189.69,6093.37 10189.97,6097.16 10189.88,6097.42"/>
    </edge>
    <edge id=":1_11" function="internal">
        <lane id=":1_11_0" index="0" speed="3.65" length="1.44" shape="10189.69,6093.37 10189.19,6094.72"/>
    </edge>
    <edge id=":1_20" function="internal">
        <lane id=":1_20_0" index="0" speed="8.41" length="10.92" shape="10189.88,6097.42 10188.84,6100.29 10186.30,6102.74 10182.34,6104.52"/>
    </edge>
    <edge id=":1_21" function="internal">
        <lane id=":1_21_0" index="0" speed="3.65" length="3.23" shape="10189.19,6094.72 10188.51,6095.30 10187.63,6095.09 10186.58,6094.11"/>
    </edge>
    <edge id=":1_12" function="internal">
        <lane id=":1_12_0" index="0" speed="7.00" length="10.09" shape="10181.39,6101.47 10184.14,6100.26 10185.92,6098.63 10186.73,6096.58 10186.58,6094.11"/>
    </edge>
    <edge id=":1_13" function="internal">
        <lane id=":1_13_0" index="0" speed="13.89" length="16.03" shape="10181.39,6101.47 10185.17,6100.47 10189.21,6099.72 10193.29,6099.29 10197.20,6099.22"/>
    </edge>
    <edge id=":1_14" function="internal">
        <lane id=":1_14_0" index="0" speed="7.59" length="4.78" shape="10181.39,6101.47 10185.75,6100.77 10186.09,6100.88"/>
    </edge>
    <edge id=":1_15" function="internal">
        <lane id=":1_15_0" index="0" speed="3.65" length="1.44" shape="10181.39,6101.47 10182.77,6101.88"/>
    </edge>
    <edge id=":1_22" function="internal">
        <lane id=":1_22_0" index="0" speed="7.59" length="10.63" shape="10186.09,6100.88 10188.89,6101.76 10190.80,6104.43 10191.50,6108.79"/>
    </edge>
    <edge id=":1_23" function="internal">
        <lane id=":1_23_0" index="0" speed="3.65" length="3.23" shape="10182.77,6101.88 10183.39,6102.52 10183.25,6103.40 10182.34,6104.52"/>
    </edge>
    <edge id=":10_0" function="internal">
        <lane id=":10_0_0" index="0" speed="7.38" length="6.63" shape="9586.62,6289.38 9585.10,6290.06 9583.87,6291.06 9582.93,6292.37 9582.27,6294.01"/>
    </edge>
    <edge id=":10_1" function="internal">
        <lane id=":10_1_0" index="0" speed="8.74" length="9.81" shape="9586.62,6289.38 9584.18,6289.84 9581.84,6289.65 9579.60,6288.82 9577.46,6287.35"/>
    </edge>
    <edge id=":10_2" function="internal">
        <lane id=":10_2_0" index="0" speed="3.65" length="1.44" shape="9586.62,6289.38 9585.23,6288.98"/>
    </edge>
    <edge id=":10_9" function="internal">
        <lane id=":10_9_0" index="0" speed="3.65" length="3.23" shape="9585.23,6288.98 9584.61,6288.33 9584.76,6287.45 9585.67,6286.33"/>
    </edge>
    <edge id=":10_3" function="internal">
        <lane id=":10_3_0" index="0" speed="7.25" length="6.57" shape="9579.55,6284.92 9580.99,6285.92 9582.49,6286.49 9584.05,6286.62 9585.67,6286.33"/>
    </edge>
    <edge id=":10_4" function="internal">
        <lane id=":10_4_0" index="0" speed="8.22" length="10.07" shape="9579.55,6284.92 9581.32,6286.87 9582.37,6289.03 9582.68,6291.41 9582.27,6294.01"/>
    </edge>
    <edge id=":10_5" function="internal">
        <lane id=":10_5_0" index="0" speed="3.65" length="1.44" shape="9579.55,6284.92 9579.94,6286.31"/>
    </edge>
    <edge id=":10_10" function="internal">
        <lane id=":10_10_0" index="0" speed="3.65" length="3.23" shape="9579.94,6286.31 9579.72,6287.18 9578.90,6287.52 9577.46,6287.35"/>
    </edge>
    <edge id=":10_6" function="internal">
        <lane id=":10_6_0" index="0" speed="6.68" length="6.41" shape="9579.19,6293.13 9579.46,6291.48 9579.26,6289.96 9578.59,6288.58 9577.46,6287.35"/>
    </edge>
    <edge id=":10_7" function="internal">
        <lane id=":10_7_0" index="0" speed="8.85" length="9.81" shape="9579.19,6293.13 9580.16,6290.73 9581.57,6288.80 9583.40,6287.33 9585.67,6286.33"/>
    </edge>
    <edge id=":10_8" function="internal">
        <lane id=":10_8_0" index="0" speed="3.65" length="1.44" shape="9579.19,6293.13 9580.29,6292.20"/>
    </edge>
    <edge id=":10_11" function="internal">
        <lane id=":10_11_0" index="0" speed="3.65" length="3.23" shape="9580.29,6292.20 9581.17,6292.04 9581.83,6292.64 9582.27,6294.01"/>
    </edge>
    <edge id=":10001_0" function="internal">
        <lane id=":10001_0_0" index="0" speed="3.65" length="4.67" shape="13157.93,11883.38 13158.14,11884.80 13157.82,11885.64 13156.95,11885.88 13155.56,11885.52"/>
    </edge>
    <edge id=":10136_0" function="internal">
        <lane id=":10136_0_0" index="0" speed="3.65" length="4.67" shape="7084.47,6177.48 7083.56,6178.60 7082.72,6178.92 7081.97,6178.44 7081.29,6177.17"/>
    </edge>
    <edge id=":10144_0" function="internal">
        <lane id=":10144_0_0" index="0" speed="6.18" length="5.94" shape="4264.44,5704.23 4264.32,5705.79 4263.79,5707.09 4262.84,5708.13 4261.49,5708.91"/>
    </edge>
    <edge id=":10144_1" function="internal">
        <lane id=":10144_1_0" index="0" speed="3.96" length="1.98" shape="4260.26,5705.95 4260.71,5705.69 4261.03,5705.35 4261.20,5704.91 4261.24,5704.39"/>
    </edge>
    <edge id=":10208_0" function="internal">
        <lane id=":10208_0_0" index="0" speed="3.65" length="4.67" shape="6551.32,3151.90 6551.33,3150.46 6551.77,3149.68 6552.66,3149.58 6553.99,3150.14"/>
    </edge>
    <edge id=":10220_0" function="internal">
        <lane id=":10220_0_0" index="0" speed="6.09" length="9.25" shape="9629.36,5068.36 9631.71,5069.56 9632.89,5071.16 9632.93,5073.15 9631.80,5075.54"/>
    </edge>
    <edge id=":10220_1" function="internal">
        <lane id=":10220_1_0" index="0" speed="3.91" length="3.08" shape="9629.13,5073.78 9629.51,5072.98 9629.50,5072.32 9629.10,5071.78 9628.32,5071.38"/>
    </edge>
    <edge id=":10254_0" function="internal">
        <lane id=":10254_0_0" index="0" speed="13.89" length="15.09" shape="10405.55,10835.22 10403.05,10832.40 10400.65,10829.47 10398.36,10826.47 10396.19,10823.39"/>
    </edge>
    <edge id=":10254_1" function="internal">
        <lane id=":10254_1_0" index="0" speed="7.89" length="4.27" shape="10405.55,10835.22 10403.29,10831.91 10403.24,10831.65"/>
    </edge>
    <edge id=":10254_2" function="internal">
        <lane id=":10254_2_0" index="0" speed="3.65" length="1.44" shape="10405.55,10835.22 10405.32,10833.79"/>
    </edge>
    <edge id=":10254_9" function="internal">
        <lane id=":10254_9_0" index="0" speed="7.89" length="10.21" shape="10403.24,10831.65 10402.70,10828.74 10403.78,10825.68 10406.53,10822.76"/>
    </edge>
    <edge id=":10254_10" function="internal">
        <lane id=":10254_10_0" index="0" speed="3.65" length="3.23" shape="10405.32,10833.79 10405.64,10832.96 10406.50,10832.71 10407.90,10833.05"/>
    </edge>
    <edge id=":10254_3" function="internal">
        <lane id=":10254_3_0" index="0" speed="6.37" length="9.07" shape="10408.53,10825.25 10406.81,10827.09 10406.13,10829.00 10406.49,10830.99 10407.90,10833.05"/>
    </edge>
    <edge id=":10254_4" function="internal">
        <lane id=":10254_4_0" index="0" speed="7.87" length="14.50" shape="10408.53,10825.25 10405.07,10827.29 10401.86,10827.66 10398.90,10826.36 10396.19,10823.39"/>
    </edge>
    <edge id=":10254_5" function="internal">
        <lane id=":10254_5_0" index="0" speed="3.65" length="1.44" shape="10408.53,10825.25 10407.09,10825.38"/>
    </edge>
    <edge id=":10254_11" function="internal">
        <lane id=":10254_11_0" index="0" speed="3.65" length="3.23" shape="10407.09,10825.38 10406.28,10825.00 10406.09,10824.13 10406.53,10822.76"/>
    </edge>
    <edge id=":10254_6" function="internal">
        <lane id=":10254_6_0" index="0" speed="6.34" length="9.04" shape="10398.84,10821.59 10400.53,10823.44 10402.37,10824.25 10404.37,10824.03 10406.53,10822.76"/>
    </edge>
    <edge id=":10254_7" function="internal">
        <lane id=":10254_7_0" index="0" speed="13.89" length="14.63" shape="10398.84,10821.59 10400.96,10824.61 10403.16,10827.49 10405.46,10830.29 10407.90,10833.05"/>
    </edge>
    <edge id=":10254_8" function="internal">
        <lane id=":10254_8_0" index="0" speed="3.65" length="1.44" shape="10398.84,10821.59 10398.85,10823.04"/>
    </edge>
    <edge id=":10254_12" function="internal">
        <lane id=":10254_12_0" index="0" speed="3.65" length="3.23" shape="10398.85,10823.04 10398.41,10823.82 10397.53,10823.93 10396.19,10823.39"/>
    </edge>
    <edge id=":10286_0" function="internal">
        <lane id=":10286_0_0" index="0" speed="3.65" length="4.67" shape="11716.19,11457.99 11717.63,11458.07 11718.38,11458.56 11718.45,11459.45 11717.82,11460.75"/>
    </edge>
    <edge id=":10510_0" function="internal">
        <lane id=":10510_0_0" index="0" speed="3.91" length="2.43" shape="1579.09,4264.64 1578.91,4264.00 1578.58,4263.56 1578.08,4263.31 1577.42,4263.25"/>
    </edge>
    <edge id=":10510_1" function="internal">
        <lane id=":10510_1_0" index="0" speed="6.09" length="7.30" shape="1577.27,4260.05 1579.24,4260.23 1580.73,4260.99 1581.74,4262.32 1582.26,4264.23"/>
    </edge>
    <edge id=":10512_0" function="internal">
        <lane id=":10512_0_0" index="0" speed="13.89" length="0.28" shape="1543.70,5330.22 1543.65,5330.28 1543.61,5330.33 1543.58,5330.38 1543.54,5330.45"/>
    </edge>
    <edge id=":10512_1" function="internal">
        <lane id=":10512_1_0" index="0" speed="13.89" length="0.85" shape="1540.78,5328.83 1540.91,5328.61 1541.00,5328.47 1541.11,5328.33 1541.27,5328.14"/>
    </edge>
    <edge id=":10522_0" function="internal">
        <lane id=":10522_0_0" index="0" speed="13.89" length="12.89" shape="1925.32,5041.00 1921.87,5040.74 1918.82,5040.70 1915.86,5041.16 1912.71,5042.39"/>
    </edge>
    <edge id=":10522_1" function="internal">
        <lane id=":10522_1_0" index="0" speed="7.45" length="4.30" shape="1925.32,5041.00 1921.12,5040.09"/>
    </edge>
    <edge id=":10522_2" function="internal">
        <lane id=":10522_2_0" index="0" speed="3.65" length="1.44" shape="1925.32,5041.00 1924.18,5040.11"/>
    </edge>
    <edge id=":10522_9" function="internal">
        <lane id=":10522_9_0" index="0" speed="7.45" length="11.97" shape="1921.12,5040.09 1920.62,5039.98 1918.09,5037.82 1917.72,5034.51 1919.51,5030.06"/>
    </edge>
    <edge id=":10522_10" function="internal">
        <lane id=":10522_10_0" index="0" speed="3.65" length="3.23" shape="1924.18,5040.11 1923.85,5039.28 1924.31,5038.51 1925.56,5037.81"/>
    </edge>
    <edge id=":10522_3" function="internal">
        <lane id=":10522_3_0" index="0" speed="5.76" length="9.17" shape="1922.29,5031.64 1921.28,5034.15 1921.49,5036.02 1922.92,5037.24 1925.56,5037.81"/>
    </edge>
    <edge id=":10522_4" function="internal">
        <lane id=":10522_4_0" index="0" speed="13.89" length="14.60" shape="1922.29,5031.64 1920.37,5034.83 1918.24,5037.79 1915.74,5040.37 1912.71,5042.39"/>
    </edge>
    <edge id=":10522_5" function="internal">
        <lane id=":10522_5_0" index="0" speed="3.65" length="1.44" shape="1922.29,5031.64 1921.00,5032.29"/>
    </edge>
    <edge id=":10522_11" function="internal">
        <lane id=":10522_11_0" index="0" speed="3.65" length="3.23" shape="1921.00,5032.29 1920.10,5032.24 1919.61,5031.49 1919.51,5030.06"/>
    </edge>
    <edge id=":10522_6" function="internal">
        <lane id=":10522_6_0" index="0" speed="13.89" length="12.79" shape="1911.26,5039.54 1914.08,5037.71 1916.13,5035.58 1917.80,5033.05 1919.51,5030.06"/>
    </edge>
    <edge id=":10522_7" function="internal">
        <lane id=":10522_7_0" index="0" speed="13.89" length="14.59" shape="1911.26,5039.54 1914.67,5038.26 1918.21,5037.68 1921.85,5037.60 1925.56,5037.81"/>
    </edge>
    <edge id=":10522_8" function="internal">
        <lane id=":10522_8_0" index="0" speed="3.65" length="1.44" shape="1911.26,5039.54 1912.69,5039.71"/>
    </edge>
    <edge id=":10522_12" function="internal">
        <lane id=":10522_12_0" index="0" speed="3.65" length="3.23" shape="1912.69,5039.71 1913.41,5040.24 1913.42,5041.13 1912.71,5042.39"/>
    </edge>
    <edge id=":10544_0" function="internal">
        <lane id=":10544_0_0" index="0" speed="5.70" length="9.21" shape="7828.08,12145.18 7827.59,12142.48 7826.42,12141.03 7824.57,12140.85 7822.04,12141.94"/>
    </edge>
    <edge id=":10544_1" function="internal">
        <lane id=":10544_1_0" index="0" speed="13.89" length="15.39" shape="7828.08,12145.18 7826.96,12129.83"/>
    </edge>
    <edge id=":10544_2" function="internal">
        <lane id=":10544_2_0" index="0" speed="7.70" length="4.56" shape="7828.08,12145.18 7828.46,12140.63"/>
    </edge>
    <edge id=":10544_3" function="internal">
        <lane id=":10544_3_0" index="0" speed="3.65" length="1.44" shape="7828.08,12145.18 7828.82,12143.94"/>
    </edge>
    <edge id=":10544_16" function="internal">
        <lane id=":10544_16_0" index="0" speed="7.70" length="11.71" shape="7828.46,12140.63 7828.49,12140.30 7830.24,12137.23 7833.35,12135.97 7837.80,12136.51"/>
    </edge>
    <edge id=":10544_17" function="internal">
        <lane id=":10544_17_0" index="0" speed="3.65" length="3.23" shape="7828.82,12143.94 7829.60,12143.51 7830.42,12143.87 7831.28,12145.03"/>
    </edge>
    <edge id=":10544_4" function="internal">
        <lane id=":10544_4_0" index="0" speed="6.12" length="9.78" shape="7836.93,12139.59 7834.33,12139.30 7832.53,12140.11 7831.51,12142.02 7831.28,12145.03"/>
    </edge>
    <edge id=":10544_5" function="internal">
        <lane id=":10544_5_0" index="0" speed="12.60" length="15.50" shape="7836.93,12139.59 7833.21,12138.95 7829.48,12139.13 7825.76,12140.12 7822.04,12141.94"/>
    </edge>
    <edge id=":10544_6" function="internal">
        <lane id=":10544_6_0" index="0" speed="9.65" length="3.55" shape="7836.93,12139.59 7833.63,12138.31"/>
    </edge>
    <edge id=":10544_7" function="internal">
        <lane id=":10544_7_0" index="0" speed="3.65" length="1.33" shape="7836.93,12139.59 7836.06,12138.58"/>
    </edge>
    <edge id=":10544_18" function="internal">
        <lane id=":10544_18_0" index="0" speed="9.65" length="11.30" shape="7833.63,12138.31 7832.88,12138.01 7829.86,12135.86 7827.89,12133.14 7826.96,12129.83"/>
    </edge>
    <edge id=":10544_19" function="internal">
        <lane id=":10544_19_0" index="0" speed="3.65" length="3.34" shape="7836.06,12138.58 7835.99,12138.50 7835.83,12137.62 7836.43,12136.96 7837.80,12136.51"/>
    </edge>
    <edge id=":10544_8" function="internal">
        <lane id=":10544_8_0" index="0" speed="8.39" length="11.05" shape="7830.14,12129.47 7830.84,12131.80 7832.34,12133.75 7834.67,12135.32 7837.80,12136.51"/>
    </edge>
    <edge id=":10544_9" function="internal">
        <lane id=":10544_9_0" index="0" speed="13.89" length="15.60" shape="7830.14,12129.47 7831.28,12145.03"/>
    </edge>
    <edge id=":10544_10" function="internal">
        <lane id=":10544_10_0" index="0" speed="10.12" length="3.89" shape="7830.14,12129.47 7829.94,12132.93 7829.77,12133.32"/>
    </edge>
    <edge id=":10544_11" function="internal">
        <lane id=":10544_11_0" index="0" speed="3.65" length="1.44" shape="7830.14,12129.47 7829.48,12130.76"/>
    </edge>
    <edge id=":10544_20" function="internal">
        <lane id=":10544_20_0" index="0" speed="10.12" length="11.84" shape="7829.77,12133.32 7828.52,12136.16 7825.89,12139.16 7822.04,12141.94"/>
    </edge>
    <edge id=":10544_21" function="internal">
        <lane id=":10544_21_0" index="0" speed="3.65" length="3.23" shape="7829.48,12130.76 7828.73,12131.24 7827.89,12130.94 7826.96,12129.83"/>
    </edge>
    <edge id=":10544_12" function="internal">
        <lane id=":10544_12_0" index="0" speed="8.92" length="12.06" shape="7820.40,12139.19 7823.49,12137.00 7825.61,12134.72 7826.77,12132.33 7826.96,12129.83"/>
    </edge>
    <edge id=":10544_13" function="internal">
        <lane id=":10544_13_0" index="0" speed="13.59" length="18.10" shape="7820.40,12139.19 7824.72,12137.09 7829.06,12135.94 7833.42,12135.75 7837.80,12136.51"/>
    </edge>
    <edge id=":10544_14" function="internal">
        <lane id=":10544_14_0" index="0" speed="7.42" length="6.06" shape="7820.40,12139.19 7824.95,12137.24 7826.06,12137.35"/>
    </edge>
    <edge id=":10544_15" function="internal">
        <lane id=":10544_15_0" index="0" speed="3.65" length="1.44" shape="7820.40,12139.19 7821.84,12139.26"/>
    </edge>
    <edge id=":10544_22" function="internal">
        <lane id=":10544_22_0" index="0" speed="7.42" length="10.53" shape="7826.06,12137.35 7828.28,12137.56 7830.39,12140.16 7831.28,12145.03"/>
    </edge>
    <edge id=":10544_23" function="internal">
        <lane id=":10544_23_0" index="0" speed="3.65" length="3.23" shape="7821.84,12139.26 7822.59,12139.74 7822.66,12140.64 7822.04,12141.94"/>
    </edge>
    <edge id=":10551_0" function="internal">
        <lane id=":10551_0_0" index="0" speed="6.08" length="7.44" shape="12192.04,15517.90 12193.47,15519.33 12194.12,15520.90 12194.01,15522.59 12193.13,15524.41"/>
    </edge>
    <edge id=":10551_1" function="internal">
        <lane id=":10551_1_0" index="0" speed="3.91" length="2.48" shape="12190.47,15522.62 12190.77,15522.01 12190.80,15521.45 12190.59,15520.93 12190.11,15520.45"/>
    </edge>
    <edge id=":10557_0" function="internal">
        <lane id=":10557_0_0" index="0" speed="6.07" length="8.35" shape="12141.15,16488.55 12138.84,16488.72 12137.10,16488.08 12135.94,16486.64 12135.36,16484.39"/>
    </edge>
    <edge id=":10557_1" function="internal">
        <lane id=":10557_1_0" index="0" speed="3.90" length="2.78" shape="12138.54,16484.04 12138.73,16484.79 12139.12,16485.27 12139.70,16485.48 12140.47,16485.43"/>
    </edge>
    <edge id=":10561_0" function="internal">
        <lane id=":10561_0_0" index="0" speed="6.07" length="8.43" shape="13163.04,16034.24 13165.20,16035.19 13166.44,16036.58 13166.77,16038.41 13166.20,16040.69"/>
    </edge>
    <edge id=":10561_1" function="internal">
        <lane id=":10561_1_0" index="0" speed="3.90" length="2.81" shape="13163.24,16039.47 13163.43,16038.71 13163.32,16038.10 13162.90,16037.64 13162.19,16037.32"/>
    </edge>
    <edge id=":10563_0" function="internal">
        <lane id=":10563_0_0" index="0" speed="6.24" length="5.40" shape="11544.41,17183.28 11543.96,17184.62 11543.23,17185.68 11542.21,17186.46 11540.89,17186.97"/>
    </edge>
    <edge id=":10563_1" function="internal">
        <lane id=":10563_1_0" index="0" speed="3.99" length="1.80" shape="11540.10,17183.87 11540.54,17183.70 11540.88,17183.44 11541.12,17183.09 11541.27,17182.64"/>
    </edge>
    <edge id=":10565_0" function="internal">
        <lane id=":10565_0_0" index="0" speed="9.90" length="13.08" shape="9731.73,16194.18 9729.86,16190.88 9727.66,16188.41 9725.12,16186.80 9722.25,16186.03"/>
    </edge>
    <edge id=":10565_1" function="internal">
        <lane id=":10565_1_0" index="0" speed="13.89" length="17.21" shape="9731.73,16194.18 9730.33,16190.33 9729.34,16185.91 9728.90,16181.43 9729.15,16177.36"/>
    </edge>
    <edge id=":10565_2" function="internal">
        <lane id=":10565_2_0" index="0" speed="7.44" length="5.56" shape="9731.73,16194.18 9730.34,16189.56 9730.49,16188.84"/>
    </edge>
    <edge id=":10565_3" function="internal">
        <lane id=":10565_3_0" index="0" speed="3.65" length="1.44" shape="9731.73,16194.18 9731.96,16192.76"/>
    </edge>
    <edge id=":10565_16" function="internal">
        <lane id=":10565_16_0" index="0" speed="7.44" length="10.76" shape="9730.49,16188.84 9731.01,16186.29 9733.75,16184.39 9738.55,16183.85"/>
    </edge>
    <edge id=":10565_17" function="internal">
        <lane id=":10565_17_0" index="0" speed="3.65" length="3.23" shape="9731.96,16192.76 9732.52,16192.06 9733.41,16192.10 9734.64,16192.86"/>
    </edge>
    <edge id=":10565_4" function="internal">
        <lane id=":10565_4_0" index="0" speed="5.75" length="9.17" shape="9738.47,16187.05 9735.78,16187.35 9734.24,16188.42 9733.86,16190.26 9734.64,16192.86"/>
    </edge>
    <edge id=":10565_5" function="internal">
        <lane id=":10565_5_0" index="0" speed="13.89" length="16.26" shape="9738.47,16187.05 9734.53,16186.92 9730.35,16186.71 9726.18,16186.41 9722.25,16186.03"/>
    </edge>
    <edge id=":10565_6" function="internal">
        <lane id=":10565_6_0" index="0" speed="8.02" length="4.97" shape="9738.47,16187.05 9733.78,16186.34 9733.59,16186.23"/>
    </edge>
    <edge id=":10565_7" function="internal">
        <lane id=":10565_7_0" index="0" speed="3.65" length="1.44" shape="9738.47,16187.05 9737.29,16186.22"/>
    </edge>
    <edge id=":10565_18" function="internal">
        <lane id=":10565_18_0" index="0" speed="8.02" length="10.92" shape="9733.59,16186.23 9730.66,16184.50 9729.12,16181.50 9729.15,16177.36"/>
    </edge>
    <edge id=":10565_19" function="internal">
        <lane id=":10565_19_0" index="0" speed="3.65" length="3.23" shape="9737.29,16186.22 9736.91,16185.41 9737.33,16184.62 9738.55,16183.85"/>
    </edge>
    <edge id=":10565_8" function="internal">
        <lane id=":10565_8_0" index="0" speed="6.53" length="10.15" shape="9732.30,16177.91 9732.32,16180.44 9733.36,16182.28 9735.44,16183.41 9738.55,16183.85"/>
    </edge>
    <edge id=":10565_9" function="internal">
        <lane id=":10565_9_0" index="0" speed="13.89" length="15.33" shape="9732.30,16177.91 9732.02,16181.68 9732.37,16185.52 9733.28,16189.29 9734.64,16192.86"/>
    </edge>
    <edge id=":10565_10" function="internal">
        <lane id=":10565_10_0" index="0" speed="8.27" length="2.96" shape="9732.30,16177.91 9731.42,16180.73"/>
    </edge>
    <edge id=":10565_11" function="internal">
        <lane id=":10565_11_0" index="0" speed="3.65" length="1.33" shape="9732.30,16177.91 9731.39,16178.87"/>
    </edge>
    <edge id=":10565_20" function="internal">
        <lane id=":10565_20_0" index="0" speed="8.27" length="11.58" shape="9731.42,16180.73 9731.08,16181.82 9729.00,16184.48 9726.06,16185.88 9722.25,16186.03"/>
    </edge>
    <edge id=":10565_21" function="internal">
        <lane id=":10565_21_0" index="0" speed="3.65" length="3.34" shape="9731.39,16178.87 9731.31,16178.95 9730.45,16179.21 9729.73,16178.68 9729.15,16177.36"/>
    </edge>
    <edge id=":10565_12" function="internal">
        <lane id=":10565_12_0" index="0" speed="6.83" length="9.61" shape="9722.61,16182.85 9725.08,16182.74 9726.99,16181.79 9728.34,16179.99 9729.15,16177.36"/>
    </edge>
    <edge id=":10565_13" function="internal">
        <lane id=":10565_13_0" index="0" speed="13.89" length="15.97" shape="9722.61,16182.85 9726.50,16183.23 9730.57,16183.52 9734.65,16183.72 9738.55,16183.85"/>
    </edge>
    <edge id=":10565_14" function="internal">
        <lane id=":10565_14_0" index="0" speed="11.03" length="3.99" shape="9722.61,16182.85 9726.32,16183.81 9726.46,16183.90"/>
    </edge>
    <edge id=":10565_15" function="internal">
        <lane id=":10565_15_0" index="0" speed="3.65" length="1.44" shape="9722.61,16182.85 9723.72,16183.78"/>
    </edge>
    <edge id=":10565_22" function="internal">
        <lane id=":10565_22_0" index="0" speed="11.03" length="12.38" shape="9726.46,16183.90 9729.56,16185.80 9732.33,16188.81 9734.64,16192.86"/>
    </edge>
    <edge id=":10565_23" function="internal">
        <lane id=":10565_23_0" index="0" speed="3.65" length="3.23" shape="9723.72,16183.78 9724.02,16184.62 9723.54,16185.37 9722.25,16186.03"/>
    </edge>
    <edge id=":10572_0" function="internal">
        <lane id=":10572_0_0" index="0" speed="6.55" length="9.34" shape="9027.46,16106.89 9024.97,16106.98 9023.12,16107.91 9021.91,16109.66 9021.32,16112.24"/>
    </edge>
    <edge id=":10572_1" function="internal">
        <lane id=":10572_1_0" index="0" speed="13.89" length="14.69" shape="9027.46,16106.89 9023.77,16106.54 9020.13,16106.36 9016.49,16106.32 9012.79,16106.42"/>
    </edge>
    <edge id=":10572_2" function="internal">
        <lane id=":10572_2_0" index="0" speed="9.31" length="3.90" shape="9027.46,16106.89 9023.68,16105.92"/>
    </edge>
    <edge id=":10572_3" function="internal">
        <lane id=":10572_3_0" index="0" speed="3.65" length="1.44" shape="9027.46,16106.89 9026.36,16105.96"/>
    </edge>
    <edge id=":10572_16" function="internal">
        <lane id=":10572_16_0" index="0" speed="9.31" length="11.17" shape="9023.68,16105.92 9020.74,16103.99 9018.64,16101.09 9017.39,16097.21"/>
    </edge>
    <edge id=":10572_17" function="internal">
        <lane id=":10572_17_0" index="0" speed="3.65" length="3.23" shape="9026.36,16105.96 9026.05,16105.12 9026.54,16104.37 9027.82,16103.71"/>
    </edge>
    <edge id=":10572_4" function="internal">
        <lane id=":10572_4_0" index="0" speed="8.02" length="10.97" shape="9020.54,16096.61 9021.45,16099.46 9022.97,16101.59 9025.09,16103.01 9027.82,16103.71"/>
    </edge>
    <edge id=":10572_5" function="internal">
        <lane id=":10572_5_0" index="0" speed="13.89" length="15.69" shape="9020.54,16096.61 9021.12,16100.43 9021.45,16104.40 9021.52,16108.39 9021.32,16112.24"/>
    </edge>
    <edge id=":10572_6" function="internal">
        <lane id=":10572_6_0" index="0" speed="7.77" length="4.52" shape="9020.54,16096.61 9020.72,16100.74 9020.57,16101.10"/>
    </edge>
    <edge id=":10572_7" function="internal">
        <lane id=":10572_7_0" index="0" speed="3.65" length="1.44" shape="9020.54,16096.61 9019.97,16097.94"/>
    </edge>
    <edge id=":10572_18" function="internal">
        <lane id=":10572_18_0" index="0" speed="7.77" length="10.25" shape="9020.57,16101.10 9019.49,16103.75 9016.85,16105.64 9012.79,16106.42"/>
    </edge>
    <edge id=":10572_19" function="internal">
        <lane id=":10572_19_0" index="0" speed="3.65" length="3.23" shape="9019.97,16097.94 9019.26,16098.49 9018.40,16098.24 9017.39,16097.21"/>
    </edge>
    <edge id=":10572_8" function="internal">