<?xml version="1.0" encoding="UTF-8"?>

<!-- generated on 2025-02-28 00:50:39 by Eclipse SUMO netgenerate Version 1.22.0
<netgenerateConfiguration xmlns:xsi="http://www.w3.org/2001/XMLSchema-instance" xsi:noNamespaceSchemaLocation="http://sumo.dlr.de/xsd/netgenerateConfiguration.xsd">

    <random_network>
        <rand value="true"/>
        <rand.iterations value="100"/>
        <rand.max-distance value="2608.1248394300947"/>
        <rand.min-distance value="1335.6305280402712"/>
        <rand.min-angle value="45.38037815474943"/>
        <rand.neighbor-dist1 value="1.0"/>
        <rand.neighbor-dist2 value="10.0"/>
        <rand.neighbor-dist3 value="5.0"/>
    </random_network>

    <output>
        <output-file value="rand0.net.xml"/>
    </output>

    <building_defaults>
        <default.lanenumber value="2"/>
    </building_defaults>

    <tls_building>
        <tls.guess value="true"/>
    </tls_building>

</netgenerateConfiguration>
-->

<net version="1.20" junctionCornerDetail="5" limitTurnSpeed="5.50" xmlns:xsi="http://www.w3.org/2001/XMLSchema-instance" xsi:noNamespaceSchemaLocation="http://sumo.dlr.de/xsd/net_file.xsd">

    <location netOffset="8988.72,8627.93" convBoundary="0.00,0.00,21823.47,21634.96" origBoundary="-8988.72,-8627.93,12834.74,13007.03" projParameter="!"/>

    <edge id=":1_0" function="internal">
        <lane id=":1_0_0" index="0" speed="5.98" length="9.08" shape="8984.12,8640.55 8983.71,8637.97 8982.58,8636.40 8980.73,8635.82 8978.16,8636.23"/>
    </edge>
    <edge id=":1_1" function="internal">
        <lane id=":1_1_0" index="0" speed="13.89" length="21.78" shape="8984.12,8640.55 8984.01,8634.38 8983.74,8629.83 8983.06,8625.34 8981.72,8619.33"/>
        <lane id=":1_1_1" index="1" speed="13.89" length="21.78" shape="8987.32,8640.49 8987.19,8634.22 8986.89,8629.43 8986.19,8624.70 8984.83,8618.58"/>
    </edge>
    <edge id=":1_3" function="internal">
        <lane id=":1_3_0" index="0" speed="9.49" length="5.41" shape="8987.32,8640.49 8987.91,8635.11"/>
    </edge>
    <edge id=":1_4" function="internal">
        <lane id=":1_4_0" index="0" speed="3.65" length="1.44" shape="8987.32,8640.49 8988.10,8639.28"/>
    </edge>
    <edge id=":1_20" function="internal">
        <lane id=":1_20_0" index="0" speed="9.49" length="15.80" shape="8987.91,8635.11 8988.00,8634.30 8990.26,8629.94 8994.10,8627.42 8999.53,8626.73"/>
    </edge>
    <edge id=":1_21" function="internal">
        <lane id=":1_21_0" index="0" speed="3.65" length="3.23" shape="8988.10,8639.28 8988.90,8638.87 8989.70,8639.26 8990.52,8640.44"/>
    </edge>
    <edge id=":1_5" function="internal">
        <lane id=":1_5_0" index="0" speed="6.84" length="10.50" shape="8999.29,8633.13 8996.81,8633.50 8995.05,8634.84 8994.02,8637.14 8993.72,8640.39"/>
    </edge>
    <edge id=":1_6" function="internal">
        <lane id=":1_6_0" index="0" speed="13.89" length="22.05" shape="8999.29,8633.13 8993.11,8633.04 8988.56,8633.43 8984.09,8634.44 8978.16,8636.23"/>
        <lane id=":1_6_1" index="1" speed="13.89" length="22.05" shape="8999.41,8629.93 8993.07,8629.86 8988.15,8630.30 8983.31,8631.36 8977.22,8633.17"/>
    </edge>
    <edge id=":1_8" function="internal">
        <lane id=":1_8_0" index="0" speed="10.52" length="4.62" shape="8999.41,8629.93 8994.85,8629.19"/>
    </edge>
    <edge id=":1_9" function="internal">
        <lane id=":1_9_0" index="0" speed="3.65" length="1.44" shape="8999.41,8629.93 8998.24,8629.09"/>
    </edge>
    <edge id=":1_22" function="internal">
        <lane id=":1_22_0" index="0" speed="10.52" length="15.41" shape="8994.85,8629.19 8994.01,8629.05 8989.79,8626.87 8986.73,8623.38 8984.83,8618.58"/>
    </edge>
    <edge id=":1_23" function="internal">
        <lane id=":1_23_0" index="0" speed="3.65" length="3.23" shape="8998.24,8629.09 8997.87,8628.27 8998.30,8627.49 8999.53,8626.73"/>
    </edge>
    <edge id=":1_10" function="internal">
        <lane id=":1_10_0" index="0" speed="8.14" length="11.64" shape="8991.06,8617.09 8992.15,8619.81 8993.95,8621.79 8996.45,8623.03 8999.65,8623.54"/>
    </edge>
    <edge id=":1_11" function="internal">
        <lane id=":1_11_0" index="0" speed="13.89" length="23.18" shape="8991.06,8617.09 8992.44,8623.42 8993.20,8628.64 8993.57,8633.90 8993.72,8640.39"/>
        <lane id=":1_11_1" index="1" speed="13.89" length="23.18" shape="8987.95,8617.83 8989.31,8624.06 8990.05,8629.04 8990.38,8634.06 8990.52,8640.44"/>
    </edge>
    <edge id=":1_13" function="internal">
        <lane id=":1_13_0" index="0" speed="9.86" length="4.68" shape="8987.95,8617.83 8988.25,8622.50"/>
    </edge>
    <edge id=":1_14" function="internal">
        <lane id=":1_14_0" index="0" speed="3.65" length="1.44" shape="8987.95,8617.83 8987.45,8619.19"/>
    </edge>
    <edge id=":1_24" function="internal">
        <lane id=":1_24_0" index="0" speed="9.86" length="16.32" shape="8988.25,8622.50 8988.28,8622.98 8986.60,8627.26 8982.92,8630.65 8977.22,8633.17"/>
    </edge>
    <edge id=":1_25" function="internal">
        <lane id=":1_25_0" index="0" speed="3.65" length="3.23" shape="8987.45,8619.19 8986.76,8619.76 8985.89,8619.56 8984.83,8618.58"/>
    </edge>
    <edge id=":1_15" function="internal">
        <lane id=":1_15_0" index="0" speed="7.34" length="11.19" shape="8975.32,8627.06 8978.60,8625.68 8980.76,8623.93 8981.80,8621.82 8981.72,8619.33"/>
    </edge>
    <edge id=":1_16" function="internal">
        <lane id=":1_16_0" index="0" speed="13.89" length="24.20" shape="8975.32,8627.06 8981.74,8625.21 8987.32,8624.04 8992.98,8623.51 8999.65,8623.54"/>
        <lane id=":1_16_1" index="1" speed="13.89" length="24.20" shape="8976.27,8630.12 8982.53,8628.28 8987.73,8627.17 8993.02,8626.69 8999.53,8626.73"/>
    </edge>
    <edge id=":1_18" function="internal">
        <lane id=":1_18_0" index="0" speed="8.91" length="5.47" shape="8976.27,8630.12 8981.66,8629.25"/>
    </edge>
    <edge id=":1_19" function="internal">
        <lane id=":1_19_0" index="0" speed="3.65" length="1.44" shape="8976.27,8630.12 8977.65,8630.52"/>
    </edge>
    <edge id=":1_26" function="internal">
        <lane id=":1_26_0" index="0" speed="8.91" length="16.27" shape="8981.66,8629.25 8982.42,8629.13 8986.84,8630.52 8989.54,8634.29 8990.52,8640.44"/>
    </edge>
    <edge id=":1_27" function="internal">
        <lane id=":1_27_0" index="0" speed="3.65" length="3.23" shape="8977.65,8630.52 8978.27,8631.17 8978.12,8632.05 8977.22,8633.17"/>
    </edge>
    <edge id=":10_0" function="internal">
        <lane id=":10_0_0" index="0" speed="5.55" length="9.42" shape="7155.83,9214.50 7153.45,9212.83 7151.66,9212.65 7150.46,9213.99 7149.85,9216.84"/>
    </edge>
    <edge id=":10_1" function="internal">
        <lane id=":10_1_0" index="0" speed="13.89" length="27.67" shape="7155.83,9214.50 7150.52,9209.52 7145.77,9204.43 7141.66,9198.89 7138.28,9192.53"/>
        <lane id=":10_1_1" index="1" speed="13.89" length="27.67" shape="7157.98,9212.14 7152.80,9207.33 7148.32,9202.62 7144.47,9197.45 7141.22,9191.26"/>
    </edge>
    <edge id=":10_3" function="internal">
        <lane id=":10_3_0" index="0" speed="9.00" length="6.10" shape="7157.98,9212.14 7153.99,9207.52"/>
    </edge>
    <edge id=":10_4" function="internal">
        <lane id=":10_4_0" index="0" speed="3.65" length="1.44" shape="7157.98,9212.14 7157.63,9210.74"/>
    </edge>
    <edge id=":10_21" function="internal">
        <lane id=":10_21_0" index="0" speed="9.00" length="19.56" shape="7153.99,9207.52 7152.68,9206.00 7151.35,9200.86 7153.98,9196.71 7160.59,9193.55"/>
    </edge>
    <edge id=":10_22" function="internal">
        <lane id=":10_22_0" index="0" speed="3.65" length="3.23" shape="7157.63,9210.74 7157.88,9209.88 7158.71,9209.55 7160.14,9209.77"/>
    </edge>
    <edge id=":10_5" function="internal">
        <lane id=":10_5_0" index="0" speed="5.97" length="10.47" shape="7162.48,9199.66 7160.04,9200.90 7159.19,9202.60 7159.94,9204.77 7162.29,9207.40"/>
    </edge>
    <edge id=":10_6" function="internal">
        <lane id=":10_6_0" index="0" speed="11.85" length="22.74" shape="7162.48,9199.66 7157.41,9202.06 7153.61,9205.73 7151.09,9210.65 7149.85,9216.84"/>
        <lane id=":10_6_1" index="1" speed="12.77" length="26.54" shape="7161.54,9196.60 7155.55,9199.42 7151.08,9203.68 7148.11,9209.39 7146.66,9216.55"/>
    </edge>
    <edge id=":10_8" function="internal">
        <lane id=":10_8_0" index="0" speed="10.52" length="3.03" shape="7161.54,9196.60 7158.57,9197.22"/>
    </edge>
    <edge id=":10_9" function="internal">
        <lane id=":10_9_0" index="0" speed="3.65" length="1.31" shape="7161.54,9196.60 7160.28,9196.23"/>
    </edge>
    <edge id=":10_23" function="internal">
        <lane id=":10_23_0" index="0" speed="10.52" length="20.20" shape="7158.57,9197.22 7154.31,9198.12 7148.52,9197.73 7144.15,9195.44 7141.22,9191.26"/>
    </edge>
    <edge id=":10_24" function="internal">
        <lane id=":10_24_0" index="0" speed="3.65" length="3.37" shape="7160.28,9196.23 7160.15,9196.19 7159.53,9195.55 7159.68,9194.67 7160.59,9193.55"/>
    </edge>
    <edge id=":10_10" function="internal">
        <lane id=":10_10_0" index="0" speed="8.22" length="13.79" shape="7147.10,9188.72 7148.69,9190.70 7151.31,9191.66 7154.96,9191.59 7159.64,9190.49"/>
    </edge>
    <edge id=":10_11" function="internal">
        <lane id=":10_11_0" index="0" speed="13.89" length="24.33" shape="7147.10,9188.72 7150.10,9194.57 7153.41,9198.98 7157.35,9202.94 7162.29,9207.40"/>
        <lane id=":10_11_1" index="1" speed="13.89" length="25.67" shape="7144.16,9189.99 7147.29,9196.01 7150.86,9200.80 7155.08,9205.13 7160.14,9209.77"/>
    </edge>
    <edge id=":10_13" function="internal">
        <lane id=":10_13_0" index="0" speed="13.89" length="27.37" shape="7144.16,9189.99 7146.84,9196.66 7148.82,9203.12 7149.89,9209.73 7149.85,9216.84"/>
        <lane id=":10_13_1" index="1" speed="13.89" length="27.37" shape="7144.16,9189.99 7146.35,9196.61 7147.23,9202.98 7147.20,9209.49 7146.66,9216.55"/>
    </edge>
    <edge id=":10_15" function="internal">
        <lane id=":10_15_0" index="0" speed="3.65" length="1.44" shape="7144.16,9189.99 7143.90,9191.41"/>
    </edge>
    <edge id=":10_25" function="internal">
        <lane id=":10_25_0" index="0" speed="3.65" length="3.23" shape="7143.90,9191.41 7143.32,9192.09 7142.43,9192.04 7141.22,9191.26"/>
    </edge>
    <edge id=":10_16" function="internal">
        <lane id=":10_16_0" index="0" speed="13.89" length="24.67" shape="7140.28,9215.99 7140.90,9209.41 7141.10,9203.97 7140.39,9198.67 7138.28,9192.53"/>
        <lane id=":10_16_1" index="1" speed="13.89" length="24.67" shape="7143.47,9216.27 7144.05,9209.45 7144.16,9203.47 7143.37,9197.64 7141.22,9191.26"/>
    </edge>
    <edge id=":10_18" function="internal">
        <lane id=":10_18_0" index="0" speed="13.63" length="30.34" shape="7143.47,9216.27 7145.14,9208.14 7148.54,9201.64 7153.69,9196.77 7160.59,9193.55"/>
    </edge>
    <edge id=":10_19" function="internal">
        <lane id=":10_19_0" index="0" speed="8.34" length="6.22" shape="7143.47,9216.27 7145.35,9210.34"/>
    </edge>
    <edge id=":10_20" function="internal">
        <lane id=":10_20_0" index="0" speed="3.65" length="1.44" shape="7143.47,9216.27 7144.37,9215.15"/>
    </edge>
    <edge id=":10_26" function="internal">
        <lane id=":10_26_0" index="0" speed="8.34" length="17.01" shape="7145.35,9210.34 7145.41,9210.14 7149.38,9206.80 7154.56,9206.57 7160.14,9209.77"/>
    </edge>
    <edge id=":10_27" function="internal">
        <lane id=":10_27_0" index="0" speed="3.65" length="3.23" shape="7144.37,9215.15 7145.21,9214.82 7145.97,9215.29 7146.66,9216.55"/>
    </edge>
    <edge id=":1007_0" function="internal">
        <lane id=":1007_0_0" index="0" speed="4.15" length="1.33" shape="8219.56,12138.37 8219.24,12138.25 8218.92,12138.21 8218.60,12138.25 8218.27,12138.35"/>
        <lane id=":1007_0_1" index="1" speed="6.55" length="3.99" shape="8220.89,12135.46 8219.93,12135.12 8218.96,12135.00 8217.99,12135.10 8217.02,12135.40"/>
    </edge>
    <edge id=":1007_2" function="internal">
        <lane id=":1007_2_0" index="0" speed="9.71" length="9.31" shape="8214.51,12129.52 8216.78,12128.80 8219.05,12128.58 8221.30,12128.86 8223.55,12129.63"/>
        <lane id=":1007_2_1" index="1" speed="8.29" length="6.65" shape="8215.76,12132.46 8217.39,12131.95 8219.00,12131.79 8220.62,12131.99 8222.22,12132.54"/>
    </edge>
    <edge id=":1116_0" function="internal">
        <lane id=":1116_0_0" index="0" speed="5.72" length="9.19" shape="4700.63,12348.12 4700.02,12345.46 4698.78,12344.06 4696.92,12343.93 4694.44,12345.07"/>
    </edge>
    <edge id=":1116_1" function="internal">
        <lane id=":1116_1_0" index="0" speed="9.12" length="23.27" shape="4703.81,12347.83 4704.08,12340.77 4706.36,12336.21 4710.66,12334.15 4716.98,12334.60"/>
    </edge>
    <edge id=":1116_2" function="internal">
        <lane id=":1116_2_0" index="0" speed="3.65" length="2.34" shape="4703.81,12347.83 4704.50,12346.57 4705.26,12346.10"/>
    </edge>
    <edge id=":1116_11" function="internal">
        <lane id=":1116_11_0" index="0" speed="3.65" length="2.34" shape="4705.26,12346.10 4706.10,12346.42 4707.00,12347.55"/>
    </edge>
    <edge id=":1116_3" function="internal">
        <lane id=":1116_3_0" index="0" speed="6.28" length="10.35" shape="4715.53,12340.83 4712.93,12340.71 4711.17,12341.74 4710.26,12343.93 4710.19,12347.26"/>
    </edge>
    <edge id=":1116_4" function="internal">
        <lane id=":1116_4_0" index="0" speed="13.89" length="22.08" shape="4715.53,12340.83 4710.26,12340.18 4704.99,12340.67 4699.71,12342.30 4694.44,12345.07"/>
        <lane id=":1116_4_1" index="1" speed="13.89" length="24.62" shape="4716.26,12337.72 4710.34,12336.98 4704.45,12337.51 4698.58,12339.30 4692.73,12342.36"/>
    </edge>
    <edge id=":1116_6" function="internal">
        <lane id=":1116_6_0" index="0" speed="3.65" length="1.33" shape="4716.26,12337.72 4715.34,12336.75"/>
    </edge>
    <edge id=":1116_12" function="internal">
        <lane id=":1116_12_0" index="0" speed="3.65" length="3.34" shape="4715.34,12336.75 4715.27,12336.67 4715.06,12335.80 4715.63,12335.11 4716.98,12334.60"/>
    </edge>
    <edge id=":1116_7" function="internal">
        <lane id=":1116_7_0" index="0" speed="13.89" length="29.69" shape="4689.31,12336.95 4696.31,12333.31 4703.37,12331.18 4710.50,12330.57 4717.70,12331.48"/>
        <lane id=":1116_7_1" index="1" speed="13.89" length="27.15" shape="4691.02,12339.66 4697.44,12336.30 4703.91,12334.34 4710.42,12333.77 4716.98,12334.60"/>
    </edge>
    <edge id=":1116_9" function="internal">
        <lane id=":1116_9_0" index="0" speed="8.81" length="7.61" shape="4691.02,12339.66 4697.44,12336.72 4697.98,12336.76"/>
    </edge>
    <edge id=":1116_10" function="internal">
        <lane id=":1116_10_0" index="0" speed="3.65" length="1.44" shape="4691.02,12339.66 4692.46,12339.69"/>
    </edge>
    <edge id=":1116_13" function="internal">
        <lane id=":1116_13_0" index="0" speed="8.81" length="16.14" shape="4697.98,12336.76 4702.24,12337.06 4705.43,12340.67 4707.00,12347.55"/>
    </edge>
    <edge id=":1116_14" function="internal">
        <lane id=":1116_14_0" index="0" speed="3.65" length="3.23" shape="4692.46,12339.69 4693.22,12340.15 4693.31,12341.04 4692.73,12342.36"/>
    </edge>
    <edge id=":1120_0" function="internal">
        <lane id=":1120_0_0" index="0" speed="13.89" length="23.85" shape="4873.96,14275.84 4871.43,14252.04"/>
        <lane id=":1120_0_1" index="1" speed="13.89" length="23.85" shape="4877.12,14275.39 4874.62,14251.75"/>
    </edge>
    <edge id=":1120_2" function="internal">
        <lane id=":1120_2_0" index="0" speed="13.20" length="4.08" shape="4877.12,14275.39 4877.41,14271.32"/>
    </edge>
    <edge id=":1120_3" function="internal">
        <lane id=":1120_3_0" index="0" speed="3.65" length="1.44" shape="4877.12,14275.39 4877.75,14274.09"/>
    </edge>
    <edge id=":1120_12" function="internal">
        <lane id=":1120_12_0" index="0" speed="13.20" length="19.41" shape="4877.41,14271.32 4877.43,14271.04 4879.52,14266.39 4883.41,14261.44 4889.08,14256.19"/>
    </edge>
    <edge id=":1120_13" function="internal">
        <lane id=":1120_13_0" index="0" speed="3.65" length="3.23" shape="4877.75,14274.09 4878.49,14273.59 4879.33,14273.87 4880.29,14274.95"/>
    </edge>
    <edge id=":1120_4" function="internal">
        <lane id=":1120_4_0" index="0" speed="11.29" length="17.01" shape="4893.15,14261.13 4888.66,14265.16 4885.54,14268.74 4883.81,14271.85 4883.46,14274.50"/>
        <lane id=":1120_4_1" index="1" speed="12.28" length="20.24" shape="4891.12,14258.66 4886.03,14263.30 4882.53,14267.56 4880.62,14271.45 4880.29,14274.95"/>
    </edge>
    <edge id=":1120_6" function="internal">
        <lane id=":1120_6_0" index="0" speed="8.81" length="25.42" shape="4891.12,14258.66 4884.54,14262.79 4879.60,14263.01 4876.29,14259.33 4874.62,14251.75"/>
    </edge>
    <edge id=":1120_7" function="internal">
        <lane id=":1120_7_0" index="0" speed="3.65" length="2.34" shape="4891.12,14258.66 4889.68,14258.80 4888.86,14258.44"/>
    </edge>
    <edge id=":1120_14" function="internal">
        <lane id=":1120_14_0" index="0" speed="3.65" length="2.34" shape="4888.86,14258.44 4888.67,14257.57 4889.08,14256.19"/>
    </edge>
    <edge id=":1120_8" function="internal">
        <lane id=":1120_8_0" index="0" speed="5.60" length="9.33" shape="4881.00,14251.18 4881.61,14253.96 4882.82,14255.31 4884.64,14255.23 4887.05,14253.72"/>
    </edge>
    <edge id=":1120_9" function="internal">
        <lane id=":1120_9_0" index="0" speed="13.89" length="23.53" shape="4881.00,14251.18 4883.46,14274.50"/>
        <lane id=":1120_9_1" index="1" speed="13.89" length="23.53" shape="4877.81,14251.47 4880.29,14274.95"/>
    </edge>
    <edge id=":1120_11" function="internal">
        <lane id=":1120_11_0" index="0" speed="3.65" length="1.44" shape="4877.81,14251.47 4877.12,14252.73"/>
    </edge>
    <edge id=":1120_15" function="internal">
        <lane id=":1120_15_0" index="0" speed="3.65" length="3.23" shape="4877.12,14252.73 4876.36,14253.20 4875.53,14252.88 4874.62,14251.75"/>
    </edge>
    <edge id=":1122_0" function="internal">
        <lane id=":1122_0_0" index="0" speed="6.05" length="9.07" shape="18650.65,16601.38 18649.47,16599.08 18647.91,16597.91 18645.95,16597.86 18643.61,16598.94"/>
    </edge>
    <edge id=":1122_1" function="internal">
        <lane id=":1122_1_0" index="0" speed="13.89" length="22.40" shape="18650.65,16601.38 18648.50,16595.55 18646.41,16591.44 18643.57,16587.79 18639.20,16583.39"/>
        <lane id=":1122_1_1" index="1" speed="13.89" length="22.40" shape="18653.68,16600.34 18651.41,16594.32 18649.03,16589.76 18645.92,16585.68 18641.42,16581.08"/>
    </edge>
    <edge id=":1122_3" function="internal">
        <lane id=":1122_3_0" index="0" speed="9.39" length="4.29" shape="18653.68,16600.34 18652.82,16596.14"/>
    </edge>
    <edge id=":1122_4" function="internal">
        <lane id=":1122_4_0" index="0" speed="3.65" length="1.44" shape="18653.68,16600.34 18654.04,16598.95"/>
    </edge>
    <edge id=":1122_20" function="internal">
        <lane id=":1122_20_0" index="0" speed="9.39" length="16.64" shape="18652.82,16596.14 18652.46,16594.39 18653.32,16589.67 18656.26,16586.18 18661.28,16583.93"/>
    </edge>
    <edge id=":1122_21" function="internal">
        <lane id=":1122_21_0" index="0" speed="3.65" length="3.23" shape="18654.04,16598.95 18654.67,16598.31 18655.56,16598.43 18656.70,16599.30"/>
    </edge>
    <edge id=":1122_5" function="internal">
        <lane id=":1122_5_0" index="0" speed="6.70" length="10.12" shape="18662.95,16590.10 18660.68,16591.17 18659.39,16592.89 18659.07,16595.25 18659.73,16598.26"/>
    </edge>
    <edge id=":1122_6" function="internal">
        <lane id=":1122_6_0" index="0" speed="13.89" length="21.89" shape="18662.95,16590.10 18657.04,16591.83 18652.81,16593.47 18648.82,16595.64 18643.61,16598.94"/>
        <lane id=":1122_6_1" index="1" speed="13.89" length="21.89" shape="18662.11,16587.01 18656.06,16588.80 18651.53,16590.58 18647.23,16592.89 18641.88,16596.25"/>
    </edge>
    <edge id=":1122_8" function="internal">
        <lane id=":1122_8_0" index="0" speed="12.87" length="4.75" shape="18662.11,16587.01 18657.41,16587.68"/>
    </edge>
    <edge id=":1122_9" function="internal">
        <lane id=":1122_9_0" index="0" speed="3.65" length="1.44" shape="18662.11,16587.01 18660.75,16586.56"/>
    </edge>
    <edge id=":1122_22" function="internal">
        <lane id=":1122_22_0" index="0" speed="12.87" length="17.82" shape="18657.41,16587.68 18656.57,16587.80 18651.27,16587.07 18646.22,16584.83 18641.42,16581.08"/>
    </edge>
    <edge id=":1122_23" function="internal">
        <lane id=":1122_23_0" index="0" speed="3.65" length="3.23" shape="18660.75,16586.56 18660.15,16585.89 18660.33,16585.01 18661.28,16583.93"/>
    </edge>
    <edge id=":1122_10" function="internal">
        <lane id=":1122_10_0" index="0" speed="10.88" length="15.95" shape="18645.85,16576.47 18649.30,16579.18 18652.88,16580.81 18656.59,16581.36 18660.44,16580.84"/>
    </edge>
    <edge id=":1122_11" function="internal">
        <lane id=":1122_11_0" index="0" speed="13.89" length="25.38" shape="18645.85,16576.47 18650.61,16581.47 18654.28,16586.42 18657.21,16591.84 18659.73,16598.26"/>
        <lane id=":1122_11_1" index="1" speed="13.89" length="25.38" shape="18643.64,16578.77 18648.26,16583.58 18651.65,16588.09 18654.31,16593.08 18656.70,16599.30"/>
    </edge>
    <edge id=":1122_13" function="internal">
        <lane id=":1122_13_0" index="0" speed="8.97" length="5.91" shape="18643.64,16578.77 18647.27,16583.44"/>
    </edge>
    <edge id=":1122_14" function="internal">
        <lane id=":1122_14_0" index="0" speed="3.65" length="1.44" shape="18643.64,16578.77 18643.95,16580.18"/>
    </edge>
    <edge id=":1122_24" function="internal">
        <lane id=":1122_24_0" index="0" speed="8.97" length="15.39" shape="18647.27,16583.44 18647.34,16583.54 18648.28,16588.03 18646.46,16592.27 18641.88,16596.25"/>
    </edge>
    <edge id=":1122_25" function="internal">
        <lane id=":1122_25_0" index="0" speed="3.65" length="3.23" shape="18643.95,16580.18 18643.68,16581.04 18642.84,16581.34 18641.42,16581.08"/>
    </edge>
    <edge id=":1122_15" function="internal">
        <lane id=":1122_15_0" index="0" speed="6.08" length="9.13" shape="18638.41,16590.87 18640.38,16589.16 18641.17,16587.34 18640.78,16585.42 18639.20,16583.39"/>
    </edge>
    <edge id=":1122_16" function="internal">
        <lane id=":1122_16_0" index="0" speed="13.89" length="23.85" shape="18638.41,16590.87 18644.04,16587.38 18648.96,16584.80 18654.11,16582.75 18660.44,16580.84"/>
        <lane id=":1122_16_1" index="1" speed="13.89" length="23.85" shape="18640.14,16593.56 18645.63,16590.14 18650.24,16587.69 18655.08,16585.77 18661.28,16583.93"/>
    </edge>
    <edge id=":1122_18" function="internal">
        <lane id=":1122_18_0" index="0" speed="8.95" length="5.43" shape="18640.14,16593.56 18645.07,16591.30"/>
    </edge>
    <edge id=":1122_19" function="internal">
        <lane id=":1122_19_0" index="0" speed="3.65" length="1.44" shape="18640.14,16593.56 18641.58,16593.58"/>
    </edge>
    <edge id=":1122_26" function="internal">
        <lane id=":1122_26_0" index="0" speed="8.95" length="15.91" shape="18645.07,16591.30 18645.66,16591.03 18650.26,16591.14 18653.94,16593.90 18656.70,16599.30"/>
    </edge>
    <edge id=":1122_27" function="internal">
        <lane id=":1122_27_0" index="0" speed="3.65" length="3.23" shape="18641.58,16593.58 18642.35,16594.04 18642.45,16594.93 18641.88,16596.25"/>
    </edge>
    <edge id=":1126_0" function="internal">
        <lane id=":1126_0_0" index="0" speed="9.29" length="12.00" shape="19647.93,14620.92 19647.15,14623.95 19645.72,14626.44 19643.61,14628.42 19640.85,14629.87"/>
        <lane id=":1126_0_1" index="1" speed="7.93" length="8.57" shape="19644.76,14620.49 19644.21,14622.65 19643.18,14624.43 19641.68,14625.84 19639.70,14626.88"/>
    </edge>
    <edge id=":1126_2" function="internal">
        <lane id=":1126_2_0" index="0" speed="4.01" length="1.71" shape="19637.41,14620.90 19637.80,14620.70 19638.10,14620.42 19638.31,14620.06 19638.42,14619.63"/>
        <lane id=":1126_2_1" index="1" speed="6.28" length="5.14" shape="19638.56,14623.89 19639.74,14623.27 19640.64,14622.42 19641.26,14621.35 19641.59,14620.06"/>
    </edge>
    <edge id=":1132_0" function="internal">
        <lane id=":1132_0_0" index="0" speed="13.12" length="38.40" shape="17060.96,17633.80 17051.36,17629.86 17045.16,17623.73 17042.36,17615.41 17042.97,17604.90"/>
        <lane id=":1132_0_1" index="1" speed="12.26" length="33.42" shape="17061.74,17630.69 17053.39,17627.26 17048.01,17621.93 17045.58,17614.68 17046.11,17605.52"/>
    </edge>
    <edge id=":1132_2" function="internal">
        <lane id=":1132_2_0" index="0" speed="8.22" length="6.23" shape="17061.74,17630.69 17056.25,17627.75"/>
    </edge>
    <edge id=":1132_3" function="internal">
        <lane id=":1132_3_0" index="0" speed="3.65" length="1.44" shape="17061.74,17630.69 17060.77,17629.62"/>
    </edge>
    <edge id=":1132_12" function="internal">
        <lane id=":1132_12_0" index="0" speed="8.22" length="17.46" shape="17056.25,17627.75 17056.06,17627.64 17053.65,17622.90 17054.63,17617.60 17059.14,17612.87"/>
    </edge>
    <edge id=":1132_13" function="internal">
        <lane id=":1132_13_0" index="0" speed="3.65" length="3.23" shape="17060.77,17629.62 17060.58,17628.75 17061.16,17628.07 17062.52,17627.59"/>
    </edge>
    <edge id=":1132_4" function="internal">
        <lane id=":1132_4_0" index="0" speed="5.54" length="9.87" shape="17062.61,17618.25 17060.12,17620.28 17059.40,17621.99 17060.46,17623.39 17063.30,17624.49"/>
        <lane id=":1132_4_1" index="1" speed="7.44" length="19.11" shape="17060.87,17615.56 17056.12,17619.45 17054.81,17622.75 17056.94,17625.46 17062.52,17627.59"/>
    </edge>
    <edge id=":1132_6" function="internal">
        <lane id=":1132_6_0" index="0" speed="8.17" length="23.53" shape="17060.87,17615.56 17054.78,17617.63 17049.64,17616.21 17046.43,17611.95 17046.11,17605.52"/>
    </edge>
    <edge id=":1132_7" function="internal">
        <lane id=":1132_7_0" index="0" speed="3.65" length="2.34" shape="17060.87,17615.56 17059.43,17615.54 17058.66,17615.09"/>
    </edge>
    <edge id=":1132_14" function="internal">
        <lane id=":1132_14_0" index="0" speed="3.65" length="2.34" shape="17058.66,17615.09 17058.56,17614.20 17059.14,17612.87"/>
    </edge>
    <edge id=":1132_8" function="internal">
        <lane id=":1132_8_0" index="0" speed="5.48" length="9.69" shape="17052.39,17606.77 17052.13,17609.84 17052.88,17611.44 17054.64,17611.55 17057.40,17610.18"/>
    </edge>
    <edge id=":1132_9" function="internal">
        <lane id=":1132_9_0" index="0" speed="10.34" length="23.47" shape="17052.39,17606.77 17052.01,17613.22 17053.70,17618.33 17057.46,17622.08 17063.30,17624.49"/>
        <lane id=":1132_9_1" index="1" speed="11.34" length="28.45" shape="17049.25,17606.15 17048.79,17613.95 17050.85,17620.13 17055.43,17624.67 17062.52,17627.59"/>
    </edge>
    <edge id=":1132_11" function="internal">
        <lane id=":1132_11_0" index="0" speed="3.65" length="1.31" shape="17049.25,17606.15 17048.33,17607.07"/>
    </edge>
    <edge id=":1132_15" function="internal">
        <lane id=":1132_15_0" index="0" speed="3.65" length="3.37" shape="17048.33,17607.07 17048.23,17607.17 17047.37,17607.40 17046.66,17606.86 17046.11,17605.52"/>
    </edge>
    <edge id=":1138_0" function="internal">
        <lane id=":1138_0_0" index="0" speed="9.00" length="22.77" shape="16412.56,17976.31 16418.99,17977.66 16422.74,17980.69 16423.80,17985.38 16422.18,17991.75"/>
        <lane id=":1138_0_1" index="1" speed="7.69" length="16.27" shape="16412.35,17979.51 16416.94,17980.47 16419.62,17982.63 16420.38,17985.98 16419.22,17990.53"/>
    </edge>
    <edge id=":1138_2" function="internal">
        <lane id=":1138_2_0" index="0" speed="3.92" length="3.25" shape="16413.30,17988.10 16413.53,17987.19 16413.38,17986.52 16412.84,17986.08 16411.93,17985.89"/>
        <lane id=":1138_2_1" index="1" speed="6.10" length="9.76" shape="16416.26,17989.31 16416.95,17986.59 16416.50,17984.57 16414.89,17983.28 16412.14,17982.70"/>
    </edge>
    <edge id=":1142_0" function="internal">
        <lane id=":1142_0_0" index="0" speed="3.65" length="4.67" shape="12749.05,19788.08 12747.67,19788.49 12746.80,19788.29 12746.44,19787.47 12746.59,19786.03"/>
    </edge>
    <edge id=":1148_0" function="internal">
        <lane id=":1148_0_0" index="0" speed="5.79" length="9.15" shape="15655.06,19849.52 15654.38,19846.92 15653.10,19845.54 15651.23,19845.36 15648.75,19846.40"/>
    </edge>
    <edge id=":1148_1" function="internal">
        <lane id=":1148_1_0" index="0" speed="13.89" length="27.32" shape="15655.06,19849.52 15653.82,19842.57 15651.81,19836.32 15649.01,19830.36 15645.36,19824.27"/>
        <lane id=":1148_1_1" index="1" speed="13.89" length="28.76" shape="15658.24,19849.15 15656.92,19841.98 15654.74,19835.26 15651.77,19828.82 15648.04,19822.52"/>
    </edge>
    <edge id=":1148_3" function="internal">
        <lane id=":1148_3_0" index="0" speed="13.89" length="30.16" shape="15658.24,19849.15 15657.94,19841.65 15658.70,19834.14 15660.39,19826.76 15662.89,19819.65"/>
    </edge>
    <edge id=":1148_4" function="internal">
        <lane id=":1148_4_0" index="0" speed="3.65" length="1.44" shape="15658.24,19849.15 15658.89,19847.86"/>
    </edge>
    <edge id=":1148_20" function="internal">
        <lane id=":1148_20_0" index="0" speed="3.65" length="3.23" shape="15658.89,19847.86 15659.64,19847.37 15660.48,19847.67 15661.42,19848.77"/>
    </edge>
    <edge id=":1148_5" function="internal">