<?xml version="1.0" encoding="UTF-8"?>

<!-- generated on 2025-03-27 09:30:08 by Eclipse SUMO netgenerate Version 1.22.0
<netgenerateConfiguration xmlns:xsi="http://www.w3.org/2001/XMLSchema-instance" xsi:noNamespaceSchemaLocation="http://sumo.dlr.de/xsd/netgenerateConfiguration.xsd">

    <random_network>
        <rand value="true"/>
        <rand.iterations value="418"/>
        <rand.max-distance value="2085.092867735991"/>
        <rand.min-distance value="947.9880856515009"/>
        <rand.min-angle value="47.60404844138189"/>
        <rand.neighbor-dist1 value="1.0"/>
        <rand.neighbor-dist2 value="10.0"/>
        <rand.neighbor-dist3 value="5.0"/>
        <rand.neighbor-dist4 value="5.0"/>
        <rand.neighbor-dist5 value="0.0"/>
        <rand.neighbor-dist6 value="0.0"/>
    </random_network>

    <output>
        <output-file value="configs/rand-configs/rand4.net.xml"/>
    </output>

    <tls_building>
        <tls.guess value="true"/>
        <tls.guess.threshold value="0"/>
    </tls_building>

</netgenerateConfiguration>
-->

<net version="1.20" junctionCornerDetail="5" limitTurnSpeed="5.50" xmlns:xsi="http://www.w3.org/2001/XMLSchema-instance" xsi:noNamespaceSchemaLocation="http://sumo.dlr.de/xsd/net_file.xsd">

    <location netOffset="14397.88,15356.83" convBoundary="0.00,0.00,44341.97,42252.67" origBoundary="-14397.88,-15356.83,29944.09,26895.84" projParameter="!"/>

    <edge id=":1_0" function="internal">
        <lane id=":1_0_0" index="0" speed="5.98" length="9.08" shape="14396.41,15365.13 14396.00,15362.56 14394.87,15360.98 14393.02,15360.40 14390.45,15360.81"/>
    </edge>
    <edge id=":1_1" function="internal">
        <lane id=":1_1_0" index="0" speed="13.89" length="14.86" shape="14396.41,15365.13 14396.27,15361.40 14395.96,15357.71 14395.44,15354.05 14394.69,15350.40"/>
    </edge>
    <edge id=":1_2" function="internal">
        <lane id=":1_2_0" index="0" speed="8.09" length="4.36" shape="14396.41,15365.13 14396.91,15360.79"/>
    </edge>
    <edge id=":1_3" function="internal">
        <lane id=":1_3_0" index="0" speed="3.65" length="1.44" shape="14396.41,15365.13 14397.19,15363.91"/>
    </edge>
    <edge id=":1_16" function="internal">
        <lane id=":1_16_0" index="0" speed="8.09" length="10.76" shape="14396.91,15360.79 14398.56,15357.74 14401.36,15355.98 14405.31,15355.51"/>
    </edge>
    <edge id=":1_17" function="internal">
        <lane id=":1_17_0" index="0" speed="3.65" length="3.23" shape="14397.19,15363.91 14397.98,15363.50 14398.79,15363.89 14399.61,15365.08"/>
    </edge>
    <edge id=":1_4" function="internal">
        <lane id=":1_4_0" index="0" speed="6.62" length="9.76" shape="14405.19,15358.71 14402.71,15359.03 14400.95,15360.19 14399.92,15362.21 14399.61,15365.08"/>
    </edge>
    <edge id=":1_5" function="internal">
        <lane id=":1_5_0" index="0" speed="13.89" length="14.95" shape="14405.19,15358.71 14401.45,15358.75 14397.74,15359.13 14394.07,15359.83 14390.45,15360.81"/>
    </edge>
    <edge id=":1_6" function="internal">
        <lane id=":1_6_0" index="0" speed="9.03" length="3.93" shape="14405.19,15358.71 14401.31,15358.07"/>
    </edge>
    <edge id=":1_7" function="internal">
        <lane id=":1_7_0" index="0" speed="3.65" length="1.44" shape="14405.19,15358.71 14404.02,15357.86"/>
    </edge>
    <edge id=":1_18" function="internal">
        <lane id=":1_18_0" index="0" speed="9.03" length="10.59" shape="14401.31,15358.07 14398.27,15356.47 14396.06,15353.91 14394.69,15350.40"/>
    </edge>
    <edge id=":1_19" function="internal">
        <lane id=":1_19_0" index="0" speed="3.65" length="3.23" shape="14404.02,15357.86 14403.65,15357.05 14404.08,15356.26 14405.31,15355.51"/>
    </edge>
    <edge id=":1_8" function="internal">
        <lane id=":1_8_0" index="0" speed="7.70" length="10.32" shape="14397.80,15349.65 14398.78,15352.13 14400.35,15353.93 14402.53,15355.06 14405.31,15355.51"/>
    </edge>
    <edge id=":1_9" function="internal">
        <lane id=":1_9_0" index="0" speed="13.89" length="15.56" shape="14397.80,15349.65 14398.57,15353.41 14399.11,15357.31 14399.46,15361.24 14399.61,15365.08"/>
    </edge>
    <edge id=":1_10" function="internal">
        <lane id=":1_10_0" index="0" speed="8.41" length="4.08" shape="14397.80,15349.65 14398.09,15353.45 14397.99,15353.71"/>
    </edge>
    <edge id=":1_11" function="internal">
        <lane id=":1_11_0" index="0" speed="3.65" length="1.44" shape="14397.80,15349.65 14397.30,15351.01"/>
    </edge>
    <edge id=":1_20" function="internal">
        <lane id=":1_20_0" index="0" speed="8.41" length="10.92" shape="14397.99,15353.71 14396.96,15356.57 14394.41,15359.03 14390.45,15360.81"/>
    </edge>
    <edge id=":1_21" function="internal">
        <lane id=":1_21_0" index="0" speed="3.65" length="3.23" shape="14397.30,15351.01 14396.62,15351.58 14395.75,15351.38 14394.69,15350.40"/>
    </edge>
    <edge id=":1_12" function="internal">
        <lane id=":1_12_0" index="0" speed="7.00" length="10.09" shape="14389.50,15357.75 14392.25,15356.54 14394.04,15354.91 14394.85,15352.86 14394.69,15350.40"/>
    </edge>
    <edge id=":1_13" function="internal">
        <lane id=":1_13_0" index="0" speed="13.89" length="16.03" shape="14389.50,15357.75 14393.29,15356.75 14397.32,15356.01 14401.40,15355.57 14405.31,15355.51"/>
    </edge>
    <edge id=":1_14" function="internal">
        <lane id=":1_14_0" index="0" speed="7.59" length="4.78" shape="14389.50,15357.75 14393.86,15357.05 14394.21,15357.16"/>
    </edge>
    <edge id=":1_15" function="internal">
        <lane id=":1_15_0" index="0" speed="3.65" length="1.44" shape="14389.50,15357.75 14390.89,15358.16"/>
    </edge>
    <edge id=":1_22" function="internal">
        <lane id=":1_22_0" index="0" speed="7.59" length="10.63" shape="14394.21,15357.16 14397.00,15358.04 14398.92,15360.72 14399.61,15365.08"/>
    </edge>
    <edge id=":1_23" function="internal">
        <lane id=":1_23_0" index="0" speed="3.65" length="3.23" shape="14390.89,15358.16 14391.51,15358.81 14391.36,15359.69 14390.45,15360.81"/>
    </edge>
    <edge id=":10_0" function="internal">
        <lane id=":10_0_0" index="0" speed="10.43" length="10.60" shape="12991.84,15794.82 12989.70,15795.79 12987.77,15797.33 12986.04,15799.43 12984.52,15802.09"/>
    </edge>
    <edge id=":10_1" function="internal">
        <lane id=":10_1_0" index="0" speed="12.49" length="13.28" shape="12991.84,15794.82 12988.46,15795.50 12985.33,15795.39 12982.25,15794.60 12979.01,15793.24"/>
    </edge>
    <edge id=":10_2" function="internal">
        <lane id=":10_2_0" index="0" speed="3.65" length="1.44" shape="12991.84,15794.82 12990.46,15794.41"/>
    </edge>
    <edge id=":10_9" function="internal">
        <lane id=":10_9_0" index="0" speed="3.65" length="3.23" shape="12990.46,15794.41 12989.84,15793.76 12989.98,15792.88 12990.89,15791.76"/>
    </edge>
    <edge id=":10_3" function="internal">
        <lane id=":10_3_0" index="0" speed="11.41" length="11.01" shape="12980.38,15790.35 12983.25,15791.68 12985.54,15792.41 12987.87,15792.47 12990.89,15791.76"/>
    </edge>
    <edge id=":10_4" function="internal">
        <lane id=":10_4_0" index="0" speed="7.99" length="3.67" shape="12980.38,15790.35 12983.44,15792.37"/>
    </edge>
    <edge id=":10_5" function="internal">
        <lane id=":10_5_0" index="0" speed="3.65" length="1.44" shape="12980.38,15790.35 12981.12,15791.59"/>
    </edge>
    <edge id=":10_10" function="internal">
        <lane id=":10_10_0" index="0" speed="7.99" length="10.55" shape="12983.44,15792.37 12983.63,15792.50 12985.40,15795.17 12985.70,15798.37 12984.52,15802.09"/>
    </edge>
    <edge id=":10_11" function="internal">
        <lane id=":10_11_0" index="0" speed="3.65" length="3.23" shape="12981.12,15791.59 12981.14,15792.48 12980.43,15793.03 12979.01,15793.24"/>
    </edge>
    <edge id=":10_6" function="internal">
        <lane id=":10_6_0" index="0" speed="6.49" length="9.03" shape="12981.64,15800.70 12982.39,15798.34 12982.20,15796.31 12981.07,15794.61 12979.01,15793.24"/>
    </edge>
    <edge id=":10_7" function="internal">
        <lane id=":10_7_0" index="0" speed="11.60" length="13.23" shape="12981.64,15800.70 12983.51,15797.46 12985.67,15794.90 12988.14,15793.00 12990.89,15791.76"/>
    </edge>
    <edge id=":10_8" function="internal">
        <lane id=":10_8_0" index="0" speed="3.65" length="1.44" shape="12981.64,15800.70 12982.88,15799.96"/>
    </edge>
    <edge id=":10_12" function="internal">
        <lane id=":10_12_0" index="0" speed="3.65" length="3.23" shape="12982.88,15799.96 12983.78,15799.95 12984.32,15800.66 12984.52,15802.09"/>
    </edge>
    <edge id=":1001_0" function="internal">
        <lane id=":1001_0_0" index="0" speed="6.29" length="12.41" shape="16183.27,22306.36 16181.76,22309.87 16179.86,22311.30 16177.56,22310.67 16174.86,22307.96"/>
    </edge>
    <edge id=":1001_1" function="internal">
        <lane id=":1001_1_0" index="0" speed="4.02" length="4.14" shape="16177.39,22306.00 16178.29,22306.91 16179.06,22307.12 16179.69,22306.64 16180.20,22305.47"/>
    </edge>
    <edge id=":1016_0" function="internal">
        <lane id=":1016_0_0" index="0" speed="13.89" length="13.22" shape="23461.26,17974.07 23459.35,17971.16 23457.48,17968.64 23455.39,17966.31 23452.83,17963.97"/>
    </edge>
    <edge id=":1016_1" function="internal">
        <lane id=":1016_1_0" index="0" speed="7.69" length="4.09" shape="23461.26,17974.07 23459.58,17970.34"/>
    </edge>
    <edge id=":1016_2" function="internal">
        <lane id=":1016_2_0" index="0" speed="3.65" length="1.44" shape="23461.26,17974.07 23461.29,17972.63"/>
    </edge>
    <edge id=":1016_9" function="internal">
        <lane id=":1016_9_0" index="0" speed="7.69" length="10.93" shape="23459.58,17970.34 23459.52,17970.20 23459.60,17966.93 23461.49,17964.27 23465.20,17962.21"/>
    </edge>
    <edge id=":1016_10" function="internal">
        <lane id=":1016_10_0" index="0" speed="3.65" length="3.23" shape="23461.29,17972.63 23461.75,17971.86 23462.64,17971.77 23463.96,17972.36"/>
    </edge>
    <edge id=":1016_3" function="internal">
        <lane id=":1016_3_0" index="0" speed="6.11" length="9.06" shape="23466.34,17965.20 23464.10,17966.45 23462.96,17968.05 23462.91,17970.02 23463.96,17972.36"/>
    </edge>
    <edge id=":1016_4" function="internal">
        <lane id=":1016_4_0" index="0" speed="10.11" length="14.24" shape="23466.34,17965.20 23462.39,17966.31 23458.82,17966.47 23455.64,17965.69 23452.83,17963.97"/>
    </edge>
    <edge id=":1016_5" function="internal">
        <lane id=":1016_5_0" index="0" speed="3.65" length="1.44" shape="23466.34,17965.20 23464.93,17964.88"/>
    </edge>
    <edge id=":1016_11" function="internal">
        <lane id=":1016_11_0" index="0" speed="3.65" length="3.23" shape="23464.93,17964.88 23464.27,17964.28 23464.36,17963.39 23465.20,17962.21"/>
    </edge>
    <edge id=":1016_6" function="internal">
        <lane id=":1016_6_0" index="0" speed="8.88" length="10.84" shape="23454.89,17961.52 23456.95,17962.75 23459.36,17963.28 23462.11,17963.10 23465.20,17962.21"/>
    </edge>
    <edge id=":1016_7" function="internal">
        <lane id=":1016_7_0" index="0" speed="13.89" length="14.19" shape="23454.89,17961.52 23457.55,17963.97 23459.86,17966.56 23461.95,17969.33 23463.96,17972.36"/>
    </edge>
    <edge id=":1016_8" function="internal">
        <lane id=":1016_8_0" index="0" speed="3.65" length="1.44" shape="23454.89,17961.52 23455.30,17962.90"/>
    </edge>
    <edge id=":1016_12" function="internal">
        <lane id=":1016_12_0" index="0" speed="3.65" length="3.23" shape="23455.30,17962.90 23455.09,17963.77 23454.27,17964.13 23452.83,17963.97"/>
    </edge>
    <edge id=":1020_0" function="internal">
        <lane id=":1020_0_0" index="0" speed="6.02" length="9.08" shape="21066.98,26010.46 21065.65,26008.24 21064.01,26007.19 21062.06,26007.30 21059.81,26008.58"/>
    </edge>
    <edge id=":1020_1" function="internal">
        <lane id=":1020_1_0" index="0" speed="13.89" length="13.88" shape="21066.98,26010.46 21065.68,26007.09 21064.80,26003.81 21064.51,26000.48 21065.00,25996.98"/>
    </edge>
    <edge id=":1020_2" function="internal">
        <lane id=":1020_2_0" index="0" speed="3.65" length="1.44" shape="21066.98,26010.46 21067.25,26009.04"/>
    </edge>
    <edge id=":1020_9" function="internal">
        <lane id=":1020_9_0" index="0" speed="3.65" length="3.23" shape="21067.25,26009.04 21067.83,26008.36 21068.73,26008.42 21069.93,26009.21"/>
    </edge>
    <edge id=":1020_3" function="internal">
        <lane id=":1020_3_0" index="0" speed="13.10" length="11.87" shape="21068.10,25997.78 21067.59,26000.96 21067.82,26003.59 21068.65,26006.16 21069.93,26009.21"/>
    </edge>
    <edge id=":1020_4" function="internal">
        <lane id=":1020_4_0" index="0" speed="13.89" length="13.88" shape="21068.10,25997.78 21066.84,26001.08 21064.97,26003.85 21062.60,26006.28 21059.81,26008.58"/>
    </edge>
    <edge id=":1020_5" function="internal">
        <lane id=":1020_5_0" index="0" speed="3.65" length="1.44" shape="21068.10,25997.78 21067.03,25998.75"/>
    </edge>
    <edge id=":1020_10" function="internal">
        <lane id=":1020_10_0" index="0" speed="3.65" length="3.23" shape="21067.03,25998.75 21066.15,25998.93 21065.48,25998.35 21065.00,25996.98"/>
    </edge>
    <edge id=":1020_6" function="internal">
        <lane id=":1020_6_0" index="0" speed="12.98" length="11.85" shape="21057.85,26006.05 21060.46,26004.02 21062.44,26002.18 21063.92,26000.01 21065.00,25996.98"/>
    </edge>
    <edge id=":1020_7" function="internal">
        <lane id=":1020_7_0" index="0" speed="7.62" length="15.29" shape="21057.85,26006.05 21061.64,26003.89 21064.92,26003.70 21067.68,26005.48 21069.93,26009.21"/>
    </edge>
    <edge id=":1020_8" function="internal">
        <lane id=":1020_8_0" index="0" speed="3.65" length="1.44" shape="21057.85,26006.05 21059.29,26005.95"/>
    </edge>
    <edge id=":1020_11" function="internal">
        <lane id=":1020_11_0" index="0" speed="3.65" length="3.23" shape="21059.29,26005.95 21060.10,26006.33 21060.27,26007.21 21059.81,26008.58"/>
    </edge>
    <edge id=":1027_0" function="internal">
        <lane id=":1027_0_0" index="0" speed="5.71" length="9.20" shape="16532.25,21117.56 16530.04,21115.93 16528.20,21115.69 16526.72,21116.82 16525.61,21119.33"/>
    </edge>
    <edge id=":1027_1" function="internal">
        <lane id=":1027_1_0" index="0" speed="7.68" length="16.25" shape="16532.25,21117.56 16529.21,21113.74 16528.39,21110.32 16529.80,21107.28 16533.44,21104.63"/>
    </edge>
    <edge id=":1027_2" function="internal">
        <lane id=":1027_2_0" index="0" speed="3.65" length="1.44" shape="16532.25,21117.56 16531.94,21116.15"/>
    </edge>
    <edge id=":1027_9" function="internal">
        <lane id=":1027_9_0" index="0" speed="3.65" length="3.23" shape="16531.94,21116.15 16532.21,21115.29 16533.05,21115.00 16534.47,21115.25"/>
    </edge>
    <edge id=":1027_3" function="internal">
        <lane id=":1027_3_0" index="0" speed="6.10" length="9.74" shape="16534.91,21107.47 16532.80,21109.03 16532.03,21110.85 16532.59,21112.92 16534.47,21115.25"/>
    </edge>
    <edge id=":1027_4" function="internal">
        <lane id=":1027_4_0" index="0" speed="12.61" length="15.49" shape="16534.91,21107.47 16531.74,21109.55 16529.13,21112.22 16527.09,21115.48 16525.61,21119.33"/>
    </edge>
    <edge id=":1027_5" function="internal">
        <lane id=":1027_5_0" index="0" speed="3.65" length="1.34" shape="16534.91,21107.47 16533.58,21107.32"/>
    </edge>
    <edge id=":1027_10" function="internal">
        <lane id=":1027_10_0" index="0" speed="3.65" length="3.34" shape="16533.58,21107.32 16533.47,21107.31 16532.75,21106.79 16532.74,21105.89 16533.44,21104.63"/>
    </edge>
    <edge id=":1027_6" function="internal">
        <lane id=":1027_6_0" index="0" speed="13.60" length="18.09" shape="16522.54,21118.44 16524.26,21113.98 16526.65,21110.18 16529.71,21107.07 16533.44,21104.63"/>
    </edge>
    <edge id=":1027_7" function="internal">
        <lane id=":1027_7_0" index="0" speed="7.42" length="6.05" shape="16522.54,21118.44 16524.53,21113.93 16525.42,21113.25"/>
    </edge>
    <edge id=":1027_8" function="internal">
        <lane id=":1027_8_0" index="0" speed="3.65" length="1.44" shape="16522.54,21118.44 16523.64,21117.51"/>
    </edge>
    <edge id=":1027_11" function="internal">
        <lane id=":1027_11_0" index="0" speed="7.42" length="10.50" shape="16525.42,21113.25 16527.18,21111.89 16530.50,21112.34 16534.47,21115.25"/>
    </edge>
    <edge id=":1027_12" function="internal">
        <lane id=":1027_12_0" index="0" speed="3.65" length="3.23" shape="16523.64,21117.51 16524.52,21117.35 16525.18,21117.96 16525.61,21119.33"/>
    </edge>
    <edge id=":104_0" function="internal">
        <lane id=":104_0_0" index="0" speed="6.22" length="5.62" shape="18528.36,15776.46 18527.68,15775.16 18527.43,15773.85 18527.62,15772.52 18528.24,15771.19"/>
    </edge>
    <edge id=":104_1" function="internal">
        <lane id=":104_1_0" index="0" speed="3.98" length="1.87" shape="18530.95,15772.88 18530.75,15773.33 18530.68,15773.77 18530.77,15774.21 18530.99,15774.64"/>
    </edge>
    <edge id=":1040_0" function="internal">
        <lane id=":1040_0_0" index="0" speed="4.01" length="1.70" shape="24677.66,17505.52 24677.29,17505.27 24676.90,17505.15 24676.49,17505.14 24676.07,17505.25"/>
    </edge>
    <edge id=":1040_1" function="internal">
        <lane id=":1040_1_0" index="0" speed="6.29" length="5.11" shape="24674.93,17502.26 24676.21,17501.93 24677.44,17501.96 24678.61,17502.34 24679.72,17503.06"/>
    </edge>
    <edge id=":1044_0" function="internal">
        <lane id=":1044_0_0" index="0" speed="6.44" length="4.36" shape="21527.00,27094.79 21525.95,27094.39 21525.07,27093.79 21524.37,27093.01 21523.82,27092.02"/>
    </edge>
    <edge id=":1044_1" function="internal">
        <lane id=":1044_1_0" index="0" speed="4.10" length="1.45" shape="21526.77,27090.78 21526.95,27091.11 21527.19,27091.37 21527.48,27091.57 21527.83,27091.70"/>
    </edge>
    <edge id=":1050_0" function="internal">
        <lane id=":1050_0_0" index="0" speed="4.07" length="1.51" shape="20816.95,13127.08 20816.67,13126.81 20816.36,13126.62 20816.01,13126.51 20815.62,13126.50"/>
    </edge>
    <edge id=":1050_1" function="internal">
        <lane id=":1050_1_0" index="0" speed="6.40" length="4.53" shape="20815.43,13123.30 20816.60,13123.36 20817.65,13123.67 20818.59,13124.23 20819.42,13125.05"/>
    </edge>
    <edge id=":1060_0" function="internal">
        <lane id=":1060_0_0" index="0" speed="5.78" length="9.16" shape="21910.00,12597.43 21907.84,12595.81 21905.98,12595.53 21904.42,12596.57 21903.15,12598.95"/>
    </edge>
    <edge id=":1060_1" function="internal">
        <lane id=":1060_1_0" index="0" speed="13.89" length="16.51" shape="21910.00,12597.43 21907.28,12594.51 21904.59,12591.19 21902.16,12587.68 21900.23,12584.20"/>
    </edge>
    <edge id=":1060_2" function="internal">
        <lane id=":1060_2_0" index="0" speed="7.57" length="5.10" shape="21910.00,12597.43 21907.11,12593.67 21907.05,12593.32"/>
    </edge>
    <edge id=":1060_3" function="internal">
        <lane id=":1060_3_0" index="0" speed="3.65" length="1.44" shape="21910.00,12597.43 21909.71,12596.02"/>
    </edge>
    <edge id=":1060_16" function="internal">
        <lane id=":1060_16_0" index="0" speed="7.57" length="10.95" shape="21907.05,12593.32 21906.47,12590.33 21908.06,12587.41 21911.90,12584.91"/>
    </edge>
    <edge id=":1060_17" function="internal">
        <lane id=":1060_17_0" index="0" speed="3.65" length="3.23" shape="21909.71,12596.02 21909.99,12595.17 21910.84,12594.88 21912.25,12595.16"/>
    </edge>
    <edge id=":1060_4" function="internal">
        <lane id=":1060_4_0" index="0" speed="5.95" length="9.38" shape="21913.24,12587.82 21911.03,12589.27 21910.13,12590.97 21910.54,12592.94 21912.25,12595.16"/>
    </edge>
    <edge id=":1060_5" function="internal">
        <lane id=":1060_5_0" index="0" speed="12.89" length="15.37" shape="21913.24,12587.82 21909.99,12589.78 21907.14,12592.41 21904.82,12595.53 21903.15,12598.95"/>
    </edge>
    <edge id=":1060_6" function="internal">
        <lane id=":1060_6_0" index="0" speed="8.33" length="2.74" shape="21913.24,12587.82 21910.63,12588.66"/>
    </edge>
    <edge id=":1060_7" function="internal">
        <lane id=":1060_7_0" index="0" speed="3.65" length="1.31" shape="21913.24,12587.82 21911.95,12587.62"/>
    </edge>
    <edge id=":1060_18" function="internal">
        <lane id=":1060_18_0" index="0" speed="8.33" length="12.59" shape="21910.63,12588.66 21908.96,12589.19 21905.36,12589.05 21902.45,12587.38 21900.23,12584.20"/>
    </edge>
    <edge id=":1060_19" function="internal">
        <lane id=":1060_19_0" index="0" speed="3.65" length="3.37" shape="21911.95,12587.62 21911.81,12587.59 21911.12,12587.04 21911.14,12586.14 21911.90,12584.91"/>
    </edge>
    <edge id=":1060_8" function="internal">
        <lane id=":1060_8_0" index="0" speed="6.91" length="10.23" shape="21903.11,12582.82 21904.56,12584.84 21906.51,12585.86 21908.96,12585.89 21911.90,12584.91"/>
    </edge>
    <edge id=":1060_9" function="internal">
        <lane id=":1060_9_0" index="0" speed="13.89" length="15.42" shape="21903.11,12582.82 21904.95,12586.16 21907.16,12589.36 21909.63,12592.38 21912.25,12595.16"/>
    </edge>
    <edge id=":1060_10" function="internal">
        <lane id=":1060_10_0" index="0" speed="13.20" length="3.87" shape="21903.11,12582.82 21904.38,12586.48"/>
    </edge>
    <edge id=":1060_11" function="internal">
        <lane id=":1060_11_0" index="0" speed="3.65" length="1.44" shape="21903.11,12582.82 21902.91,12584.25"/>
    </edge>
    <edge id=":1060_20" function="internal">
        <lane id=":1060_20_0" index="0" speed="13.20" length="12.68" shape="21904.38,12586.48 21904.81,12590.39 21904.40,12594.55 21903.15,12598.95"/>
    </edge>
    <edge id=":1060_21" function="internal">
        <lane id=":1060_21_0" index="0" speed="3.65" length="3.23" shape="21902.91,12584.25 21902.36,12584.95 21901.46,12584.94 21900.23,12584.20"/>
    </edge>
    <edge id=":1060_12" function="internal">
        <lane id=":1060_12_0" index="0" speed="12.16" length="14.00" shape="21900.14,12597.84 21901.23,12594.07 21901.60,12590.54 21901.27,12587.25 21900.23,12584.20"/>
    </edge>
    <edge id=":1060_13" function="internal">
        <lane id=":1060_13_0" index="0" speed="13.84" length="17.78" shape="21900.14,12597.84 21902.07,12594.14 21904.97,12590.40 21908.39,12587.16 21911.90,12584.91"/>
    </edge>
    <edge id=":1060_14" function="internal">
        <lane id=":1060_14_0" index="0" speed="7.46" length="6.18" shape="21900.14,12597.84 21902.39,12593.64 21903.56,12592.86"/>
    </edge>
    <edge id=":1060_15" function="internal">
        <lane id=":1060_15_0" index="0" speed="3.65" length="1.44" shape="21900.14,12597.84 21901.31,12596.99"/>
    </edge>
    <edge id=":1060_22" function="internal">
        <lane id=":1060_22_0" index="0" speed="7.46" length="10.00" shape="21903.56,12592.86 21905.15,12591.79 21908.44,12592.30 21912.25,12595.16"/>
    </edge>
    <edge id=":1060_23" function="internal">
        <lane id=":1060_23_0" index="0" speed="3.65" length="3.23" shape="21901.31,12596.99 21902.20,12596.89 21902.81,12597.55 21903.15,12598.95"/>
    </edge>
    <edge id=":1065_0" function="internal">
        <lane id=":1065_0_0" index="0" speed="5.89" length="9.11" shape="17437.17,19146.60 17435.34,19144.70 17433.53,19144.09 17431.73,19144.75 17429.96,19146.71"/>
    </edge>
    <edge id=":1065_1" function="internal">
        <lane id=":1065_1_0" index="0" speed="8.18" length="15.34" shape="17437.17,19146.60 17435.02,19142.67 17434.55,19139.15 17435.77,19136.04 17438.69,19133.35"/>
    </edge>
    <edge id=":1065_2" function="internal">
        <lane id=":1065_2_0" index="0" speed="3.65" length="1.44" shape="17437.17,19146.60 17437.11,19145.16"/>
    </edge>
    <edge id=":1065_9" function="internal">
        <lane id=":1065_9_0" index="0" speed="3.65" length="3.23" shape="17437.11,19145.16 17437.53,19144.37 17438.41,19144.22 17439.76,19144.73"/>
    </edge>
    <edge id=":1065_3" function="internal">
        <lane id=":1065_3_0" index="0" speed="6.73" length="10.03" shape="17440.45,19136.02 17438.64,19137.73 17437.92,19139.76 17438.29,19142.09 17439.76,19144.73"/>
    </edge>
    <edge id=":1065_4" function="internal">
        <lane id=":1065_4_0" index="0" speed="13.89" length="15.07" shape="17440.45,19136.02 17437.45,19138.27 17434.69,19140.85 17432.20,19143.68 17429.96,19146.71"/>
    </edge>
    <edge id=":1065_5" function="internal">
        <lane id=":1065_5_0" index="0" speed="3.65" length="1.44" shape="17440.45,19136.02 17439.01,19136.01"/>
    </edge>
    <edge id=":1065_10" function="internal">
        <lane id=":1065_10_0" index="0" speed="3.65" length="3.23" shape="17439.01,19136.01 17438.23,19135.57 17438.13,19134.68 17438.69,19133.35"/>
    </edge>
    <edge id=":1065_6" function="internal">
        <lane id=":1065_6_0" index="0" speed="13.89" length="16.30" shape="17427.31,19144.91 17429.69,19141.74 17432.49,19138.61 17435.54,19135.74 17438.69,19133.35"/>
    </edge>
    <edge id=":1065_7" function="internal">
        <lane id=":1065_7_0" index="0" speed="7.52" length="4.95" shape="17427.31,19144.91 17430.38,19141.53 17430.74,19141.40"/>
    </edge>
    <edge id=":1065_8" function="internal">
        <lane id=":1065_8_0" index="0" speed="3.65" length="1.44" shape="17427.31,19144.91 17428.65,19144.36"/>
    </edge>
    <edge id=":1065_11" function="internal">
        <lane id=":1065_11_0" index="0" speed="7.52" length="10.78" shape="17430.74,19141.40 17433.47,19140.38 17436.60,19141.45 17439.76,19144.73"/>
    </edge>
    <edge id=":1065_12" function="internal">
        <lane id=":1065_12_0" index="0" speed="3.65" length="3.23" shape="17428.65,19144.36 17429.53,19144.48 17429.97,19145.26 17429.96,19146.71"/>
    </edge>
    <edge id=":1076_0" function="internal">
        <lane id=":1076_0_0" index="0" speed="10.22" length="1.72" shape="22910.20,22535.40 22909.81,22535.72 22909.52,22535.92 22909.21,22536.07 22908.73,22536.25"/>
    </edge>
    <edge id=":1076_1" function="internal">
        <lane id=":1076_1_0" index="0" speed="13.89" length="0.57" shape="22907.63,22533.25 22907.79,22533.19 22907.90,22533.14 22907.99,22533.07 22908.12,22532.96"/>
    </edge>
    <edge id=":1078_0" function="internal">
        <lane id=":1078_0_0" index="0" speed="13.89" length="0.82" shape="25297.45,22138.44 25297.32,22138.24 25297.21,22138.11 25297.08,22138.01 25296.87,22137.89"/>
    </edge>
    <edge id=":1078_1" function="internal">
        <lane id=":1078_1_0" index="0" speed="7.72" length="2.45" shape="25298.38,22135.08 25299.01,22135.43 25299.42,22135.73 25299.74,22136.10 25300.14,22136.70"/>
    </edge>
    <edge id=":1080_0" function="internal">
        <lane id=":1080_0_0" index="0" speed="13.89" length="17.37" shape="26227.42,18796.31 26223.36,18795.70 26219.02,18794.28 26214.89,18792.29 26211.49,18789.96"/>
    </edge>
    <edge id=":1080_1" function="internal">
        <lane id=":1080_1_0" index="0" speed="7.76" length="5.29" shape="26227.42,18796.31 26223.15,18795.51 26222.41,18794.92"/>
    </edge>
    <edge id=":1080_2" function="internal">
        <lane id=":1080_2_0" index="0" speed="3.65" length="1.44" shape="26227.42,18796.31 26226.24,18795.47"/>
    </edge>
    <edge id=":1080_9" function="internal">
        <lane id=":1080_9_0" index="0" speed="7.76" length="10.55" shape="26222.41,18794.92 26220.55,18793.44 26219.59,18790.08 26220.29,18785.45"/>
    </edge>
    <edge id=":1080_10" function="internal">
        <lane id=":1080_10_0" index="0" speed="3.65" length="3.23" shape="26226.24,18795.47 26225.87,18794.66 26226.29,18793.87 26227.52,18793.11"/>
    </edge>
    <edge id=":1080_3" function="internal">
        <lane id=":1080_3_0" index="0" speed="6.21" length="9.67" shape="26223.36,18786.34 26222.91,18789.23 26223.45,18791.32 26224.98,18792.62 26227.52,18793.11"/>
    </edge>
    <edge id=":1080_4" function="internal">
        <lane id=":1080_4_0" index="0" speed="7.47" length="16.10" shape="26223.36,18786.34 26221.44,18790.66 26218.81,18792.71 26215.50,18792.47 26211.49,18789.96"/>
    </edge>
    <edge id=":1080_5" function="internal">
        <lane id=":1080_5_0" index="0" speed="3.65" length="1.44" shape="26223.36,18786.34 26222.26,18787.27"/>
    </edge>
    <edge id=":1080_11" function="internal">
        <lane id=":1080_11_0" index="0" speed="3.65" length="3.23" shape="26222.26,18787.27 26221.38,18787.44 26220.72,18786.83 26220.29,18785.45"/>
    </edge>
    <edge id=":1080_6" function="internal">
        <lane id=":1080_6_0" index="0" speed="5.79" length="9.15" shape="26213.55,18787.51 26215.82,18788.94 26217.71,18789.07 26219.19,18787.91 26220.29,18785.45"/>
    </edge>
    <edge id=":1080_7" function="internal">
        <lane id=":1080_7_0" index="0" speed="13.89" length="15.30" shape="26213.55,18787.51 26216.64,18789.72 26220.09,18791.46 26223.76,18792.62 26227.52,18793.11"/>
    </edge>
    <edge id=":1080_8" function="internal">
        <lane id=":1080_8_0" index="0" speed="3.65" length="1.34" shape="26213.55,18787.51 26213.92,18788.79"/>
    </edge>
    <edge id=":1080_12" function="internal">
        <lane id=":1080_12_0" index="0" speed="3.65" length="3.34" shape="26213.92,18788.79 26213.95,18788.89 26213.74,18789.76 26212.92,18790.12 26211.49,18789.96"/>
    </edge>
    <edge id=":1084_0" function="internal">
        <lane id=":1084_0_0" index="0" speed="6.29" length="12.41" shape="17902.32,26561.93 17898.73,26560.63 17897.18,26558.81 17897.68,26556.48 17900.22,26553.63"/>
    </edge>
    <edge id=":1084_1" function="internal">