<?xml version="1.0" encoding="UTF-8"?>

<!-- generated on 2025-04-14 17:00:29 by Eclipse SUMO netgenerate Version 1.22.0
<netgenerateConfiguration xmlns:xsi="http://www.w3.org/2001/XMLSchema-instance" xsi:noNamespaceSchemaLocation="http://sumo.dlr.de/xsd/netgenerateConfiguration.xsd">

    <random_network>
        <rand value="true"/>
        <rand.iterations value="100"/>
        <rand.max-distance value="1110.6341971383733"/>
        <rand.min-distance value="150.0"/>
        <rand.min-angle value="90.0"/>
        <rand.neighbor-dist1 value="3.0"/>
        <rand.neighbor-dist2 value="1.0"/>
        <rand.neighbor-dist3 value="0.0"/>
        <rand.neighbor-dist4 value="5.0"/>
        <rand.neighbor-dist5 value="0.0"/>
        <rand.neighbor-dist6 value="0.0"/>
        <rand.grid value="true"/>
    </random_network>

    <output>
        <output-file value="configs/rand-configs/rand3.net.xml"/>
    </output>

    <building_defaults>
        <default.lanenumber value="2"/>
    </building_defaults>

    <tls_building>
        <tls.guess value="true"/>
        <tls.guess.threshold value="0"/>
    </tls_building>

</netgenerateConfiguration>
-->

<net version="1.20" junctionCornerDetail="5" limitTurnSpeed="5.50" xmlns:xsi="http://www.w3.org/2001/XMLSchema-instance" xsi:noNamespaceSchemaLocation="http://sumo.dlr.de/xsd/net_file.xsd">

    <location netOffset="2700.00,4200.00" convBoundary="0.00,0.00,4350.00,7050.00" origBoundary="-2700.00,-4200.00,1650.00,2850.00" projParameter="!"/>

    <edge id=":1_0" function="internal">
        <lane id=":1_0_0" index="0" speed="6.51" length="9.03" shape="2695.20,4210.40 2694.85,4207.95 2693.80,4206.20 2692.05,4205.15 2689.60,4204.80"/>
    </edge>
    <edge id=":1_1" function="internal">
        <lane id=":1_1_0" index="0" speed="13.89" length="20.80" shape="2695.20,4210.40 2695.20,4189.60"/>
        <lane id=":1_1_1" index="1" speed="13.89" length="20.80" shape="2698.40,4210.40 2698.40,4189.60"/>
    </edge>
    <edge id=":1_3" function="internal">
        <lane id=":1_3_0" index="0" speed="9.26" length="5.01" shape="2698.40,4210.40 2699.11,4205.44"/>
    </edge>
    <edge id=":1_4" function="internal">
        <lane id=":1_4_0" index="0" speed="3.65" length="1.44" shape="2698.40,4210.40 2699.20,4209.20"/>
    </edge>
    <edge id=":1_20" function="internal">
        <lane id=":1_20_0" index="0" speed="9.26" length="14.34" shape="2699.11,4205.44 2699.15,4205.15 2701.40,4201.40 2705.15,4199.15 2710.40,4198.40"/>
    </edge>
    <edge id=":1_21" function="internal">
        <lane id=":1_21_0" index="0" speed="3.65" length="3.23" shape="2699.20,4209.20 2700.00,4208.80 2700.80,4209.20 2701.60,4210.40"/>
    </edge>
    <edge id=":1_5" function="internal">
        <lane id=":1_5_0" index="0" speed="6.51" length="9.03" shape="2710.40,4204.80 2707.95,4205.15 2706.20,4206.20 2705.15,4207.95 2704.80,4210.40"/>
    </edge>
    <edge id=":1_6" function="internal">
        <lane id=":1_6_0" index="0" speed="13.89" length="20.80" shape="2710.40,4204.80 2689.60,4204.80"/>
        <lane id=":1_6_1" index="1" speed="13.89" length="20.80" shape="2710.40,4201.60 2689.60,4201.60"/>
    </edge>
    <edge id=":1_8" function="internal">
        <lane id=":1_8_0" index="0" speed="9.26" length="5.01" shape="2710.40,4201.60 2705.44,4200.89"/>
    </edge>
    <edge id=":1_9" function="internal">
        <lane id=":1_9_0" index="0" speed="3.65" length="1.44" shape="2710.40,4201.60 2709.20,4200.80"/>
    </edge>
    <edge id=":1_22" function="internal">
        <lane id=":1_22_0" index="0" speed="9.26" length="14.34" shape="2705.44,4200.89 2705.15,4200.85 2701.40,4198.60 2699.15,4194.85 2698.40,4189.60"/>
    </edge>
    <edge id=":1_23" function="internal">
        <lane id=":1_23_0" index="0" speed="3.65" length="3.23" shape="2709.20,4200.80 2708.80,4200.00 2709.20,4199.20 2710.40,4198.40"/>
    </edge>
    <edge id=":1_10" function="internal">
        <lane id=":1_10_0" index="0" speed="6.51" length="9.03" shape="2704.80,4189.60 2705.15,4192.05 2706.20,4193.80 2707.95,4194.85 2710.40,4195.20"/>
    </edge>
    <edge id=":1_11" function="internal">
        <lane id=":1_11_0" index="0" speed="13.89" length="20.80" shape="2704.80,4189.60 2704.80,4210.40"/>
        <lane id=":1_11_1" index="1" speed="13.89" length="20.80" shape="2701.60,4189.60 2701.60,4210.40"/>
    </edge>
    <edge id=":1_13" function="internal">
        <lane id=":1_13_0" index="0" speed="9.26" length="5.01" shape="2701.60,4189.60 2700.89,4194.56"/>
    </edge>
    <edge id=":1_14" function="internal">
        <lane id=":1_14_0" index="0" speed="3.65" length="1.44" shape="2701.60,4189.60 2700.80,4190.80"/>
    </edge>
    <edge id=":1_24" function="internal">
        <lane id=":1_24_0" index="0" speed="9.26" length="14.34" shape="2700.89,4194.56 2700.85,4194.85 2698.60,4198.60 2694.85,4200.85 2689.60,4201.60"/>
    </edge>
    <edge id=":1_25" function="internal">
        <lane id=":1_25_0" index="0" speed="3.65" length="3.23" shape="2700.80,4190.80 2700.00,4191.20 2699.20,4190.80 2698.40,4189.60"/>
    </edge>
    <edge id=":1_15" function="internal">
        <lane id=":1_15_0" index="0" speed="6.51" length="9.03" shape="2689.60,4195.20 2692.05,4194.85 2693.80,4193.80 2694.85,4192.05 2695.20,4189.60"/>
    </edge>
    <edge id=":1_16" function="internal">
        <lane id=":1_16_0" index="0" speed="13.89" length="20.80" shape="2689.60,4195.20 2710.40,4195.20"/>
        <lane id=":1_16_1" index="1" speed="13.89" length="20.80" shape="2689.60,4198.40 2710.40,4198.40"/>
    </edge>
    <edge id=":1_18" function="internal">
        <lane id=":1_18_0" index="0" speed="9.26" length="5.01" shape="2689.60,4198.40 2694.56,4199.11"/>
    </edge>
    <edge id=":1_19" function="internal">
        <lane id=":1_19_0" index="0" speed="3.65" length="1.44" shape="2689.60,4198.40 2690.80,4199.20"/>
    </edge>
    <edge id=":1_26" function="internal">
        <lane id=":1_26_0" index="0" speed="9.26" length="14.34" shape="2694.56,4199.11 2694.85,4199.15 2698.60,4201.40 2700.85,4205.15 2701.60,4210.40"/>
    </edge>
    <edge id=":1_27" function="internal">
        <lane id=":1_27_0" index="0" speed="3.65" length="3.23" shape="2690.80,4199.20 2691.20,4200.00 2690.80,4200.80 2689.60,4201.60"/>
    </edge>
    <edge id=":10_0" function="internal">
        <lane id=":10_0_0" index="0" speed="6.51" length="9.03" shape="2545.20,4210.40 2544.85,4207.95 2543.80,4206.20 2542.05,4205.15 2539.60,4204.80"/>
    </edge>
    <edge id=":10_1" function="internal">
        <lane id=":10_1_0" index="0" speed="13.89" length="20.80" shape="2545.20,4210.40 2545.20,4189.60"/>
        <lane id=":10_1_1" index="1" speed="13.89" length="20.80" shape="2548.40,4210.40 2548.40,4189.60"/>
    </edge>
    <edge id=":10_3" function="internal">
        <lane id=":10_3_0" index="0" speed="9.26" length="5.01" shape="2548.40,4210.40 2549.11,4205.44"/>
    </edge>
    <edge id=":10_4" function="internal">
        <lane id=":10_4_0" index="0" speed="3.65" length="1.44" shape="2548.40,4210.40 2549.20,4209.20"/>
    </edge>
    <edge id=":10_20" function="internal">
        <lane id=":10_20_0" index="0" speed="9.26" length="14.34" shape="2549.11,4205.44 2549.15,4205.15 2551.40,4201.40 2555.15,4199.15 2560.40,4198.40"/>
    </edge>
    <edge id=":10_21" function="internal">
        <lane id=":10_21_0" index="0" speed="3.65" length="3.23" shape="2549.20,4209.20 2550.00,4208.80 2550.80,4209.20 2551.60,4210.40"/>
    </edge>
    <edge id=":10_5" function="internal">
        <lane id=":10_5_0" index="0" speed="6.51" length="9.03" shape="2560.40,4204.80 2557.95,4205.15 2556.20,4206.20 2555.15,4207.95 2554.80,4210.40"/>
    </edge>
    <edge id=":10_6" function="internal">
        <lane id=":10_6_0" index="0" speed="13.89" length="20.80" shape="2560.40,4204.80 2539.60,4204.80"/>
        <lane id=":10_6_1" index="1" speed="13.89" length="20.80" shape="2560.40,4201.60 2539.60,4201.60"/>
    </edge>
    <edge id=":10_8" function="internal">
        <lane id=":10_8_0" index="0" speed="9.26" length="5.01" shape="2560.40,4201.60 2555.44,4200.89"/>
    </edge>
    <edge id=":10_9" function="internal">
        <lane id=":10_9_0" index="0" speed="3.65" length="1.44" shape="2560.40,4201.60 2559.20,4200.80"/>
    </edge>
    <edge id=":10_22" function="internal">
        <lane id=":10_22_0" index="0" speed="9.26" length="14.34" shape="2555.44,4200.89 2555.15,4200.85 2551.40,4198.60 2549.15,4194.85 2548.40,4189.60"/>
    </edge>
    <edge id=":10_23" function="internal">
        <lane id=":10_23_0" index="0" speed="3.65" length="3.23" shape="2559.20,4200.80 2558.80,4200.00 2559.20,4199.20 2560.40,4198.40"/>
    </edge>
    <edge id=":10_10" function="internal">
        <lane id=":10_10_0" index="0" speed="6.51" length="9.03" shape="2554.80,4189.60 2555.15,4192.05 2556.20,4193.80 2557.95,4194.85 2560.40,4195.20"/>
    </edge>
    <edge id=":10_11" function="internal">
        <lane id=":10_11_0" index="0" speed="13.89" length="20.80" shape="2554.80,4189.60 2554.80,4210.40"/>
        <lane id=":10_11_1" index="1" speed="13.89" length="20.80" shape="2551.60,4189.60 2551.60,4210.40"/>
    </edge>
    <edge id=":10_13" function="internal">
        <lane id=":10_13_0" index="0" speed="9.26" length="5.01" shape="2551.60,4189.60 2550.89,4194.56"/>
    </edge>
    <edge id=":10_14" function="internal">
        <lane id=":10_14_0" index="0" speed="3.65" length="1.44" shape="2551.60,4189.60 2550.80,4190.80"/>
    </edge>
    <edge id=":10_24" function="internal">
        <lane id=":10_24_0" index="0" speed="9.26" length="14.34" shape="2550.89,4194.56 2550.85,4194.85 2548.60,4198.60 2544.85,4200.85 2539.60,4201.60"/>
    </edge>
    <edge id=":10_25" function="internal">
        <lane id=":10_25_0" index="0" speed="3.65" length="3.23" shape="2550.80,4190.80 2550.00,4191.20 2549.20,4190.80 2548.40,4189.60"/>
    </edge>
    <edge id=":10_15" function="internal">
        <lane id=":10_15_0" index="0" speed="6.51" length="9.03" shape="2539.60,4195.20 2542.05,4194.85 2543.80,4193.80 2544.85,4192.05 2545.20,4189.60"/>
    </edge>
    <edge id=":10_16" function="internal">
        <lane id=":10_16_0" index="0" speed="13.89" length="20.80" shape="2539.60,4195.20 2560.40,4195.20"/>
        <lane id=":10_16_1" index="1" speed="13.89" length="20.80" shape="2539.60,4198.40 2560.40,4198.40"/>
    </edge>
    <edge id=":10_18" function="internal">
        <lane id=":10_18_0" index="0" speed="9.26" length="5.01" shape="2539.60,4198.40 2544.56,4199.11"/>
    </edge>
    <edge id=":10_19" function="internal">
        <lane id=":10_19_0" index="0" speed="3.65" length="1.44" shape="2539.60,4198.40 2540.80,4199.20"/>
    </edge>
    <edge id=":10_26" function="internal">
        <lane id=":10_26_0" index="0" speed="9.26" length="14.34" shape="2544.56,4199.11 2544.85,4199.15 2548.60,4201.40 2550.85,4205.15 2551.60,4210.40"/>
    </edge>
    <edge id=":10_27" function="internal">
        <lane id=":10_27_0" index="0" speed="3.65" length="3.23" shape="2540.80,4199.20 2541.20,4200.00 2540.80,4200.80 2539.60,4201.60"/>
    </edge>
    <edge id=":1005_0" function="internal">
        <lane id=":1005_0_0" index="0" speed="8.96" length="18.06" shape="1045.20,3606.40 1045.90,3601.50 1048.00,3598.00 1051.50,3595.90 1056.40,3595.20"/>
        <lane id=":1005_0_1" index="1" speed="7.66" length="12.90" shape="1048.40,3606.40 1048.90,3602.90 1050.40,3600.40 1052.90,3598.90 1056.40,3598.40"/>
    </edge>
    <edge id=":1005_2" function="internal">
        <lane id=":1005_2_0" index="0" speed="3.90" length="2.58" shape="1056.40,3604.80 1055.70,3604.90 1055.20,3605.20 1054.90,3605.70 1054.80,3606.40"/>
        <lane id=":1005_2_1" index="1" speed="6.08" length="7.74" shape="1056.40,3601.60 1054.30,3601.90 1052.80,3602.80 1051.90,3604.30 1051.60,3606.40"/>
    </edge>
    <edge id=":1013_0" function="internal">
        <lane id=":1013_0_0" index="0" speed="13.89" length="20.80" shape="2095.20,3310.40 2095.20,3289.60"/>
        <lane id=":1013_0_1" index="1" speed="13.89" length="20.80" shape="2098.40,3310.40 2098.40,3289.60"/>
    </edge>
    <edge id=":1013_2" function="internal">
        <lane id=":1013_2_0" index="0" speed="9.26" length="5.01" shape="2098.40,3310.40 2099.11,3305.44"/>
    </edge>
    <edge id=":1013_3" function="internal">
        <lane id=":1013_3_0" index="0" speed="3.65" length="1.44" shape="2098.40,3310.40 2099.20,3309.20"/>
    </edge>
    <edge id=":1013_12" function="internal">
        <lane id=":1013_12_0" index="0" speed="9.26" length="14.34" shape="2099.11,3305.44 2099.15,3305.15 2101.40,3301.40 2105.15,3299.15 2110.40,3298.40"/>
    </edge>
    <edge id=":1013_13" function="internal">
        <lane id=":1013_13_0" index="0" speed="3.65" length="3.23" shape="2099.20,3309.20 2100.00,3308.80 2100.80,3309.20 2101.60,3310.40"/>
    </edge>
    <edge id=":1013_4" function="internal">
        <lane id=":1013_4_0" index="0" speed="6.51" length="9.03" shape="2110.40,3304.80 2107.95,3305.15 2106.20,3306.20 2105.15,3307.95 2104.80,3310.40"/>
        <lane id=":1013_4_1" index="1" speed="8.00" length="14.19" shape="2110.40,3301.60 2106.55,3302.15 2103.80,3303.80 2102.15,3306.55 2101.60,3310.40"/>
    </edge>
    <edge id=":1013_6" function="internal">
        <lane id=":1013_6_0" index="0" speed="9.26" length="19.35" shape="2110.40,3301.60 2105.15,3300.85 2101.40,3298.60 2099.15,3294.85 2098.40,3289.60"/>
    </edge>
    <edge id=":1013_7" function="internal">
        <lane id=":1013_7_0" index="0" speed="3.65" length="2.34" shape="2110.40,3301.60 2109.20,3300.80 2108.80,3300.00"/>
    </edge>
    <edge id=":1013_14" function="internal">
        <lane id=":1013_14_0" index="0" speed="3.65" length="2.34" shape="2108.80,3300.00 2109.20,3299.20 2110.40,3298.40"/>
    </edge>
    <edge id=":1013_8" function="internal">
        <lane id=":1013_8_0" index="0" speed="6.51" length="9.03" shape="2104.80,3289.60 2105.15,3292.05 2106.20,3293.80 2107.95,3294.85 2110.40,3295.20"/>
    </edge>
    <edge id=":1013_9" function="internal">
        <lane id=":1013_9_0" index="0" speed="13.89" length="20.80" shape="2104.80,3289.60 2104.80,3310.40"/>
        <lane id=":1013_9_1" index="1" speed="13.89" length="20.80" shape="2101.60,3289.60 2101.60,3310.40"/>
    </edge>
    <edge id=":1013_11" function="internal">
        <lane id=":1013_11_0" index="0" speed="3.65" length="1.44" shape="2101.60,3289.60 2100.80,3290.80"/>
    </edge>
    <edge id=":1013_15" function="internal">
        <lane id=":1013_15_0" index="0" speed="3.65" length="3.23" shape="2100.80,3290.80 2100.00,3291.20 2099.20,3290.80 2098.40,3289.60"/>
    </edge>
    <edge id=":1031_0" function="internal">
        <lane id=":1031_0_0" index="0" speed="3.90" length="2.58" shape="2095.20,2706.40 2095.10,2705.70 2094.80,2705.20 2094.30,2704.90 2093.60,2704.80"/>
        <lane id=":1031_0_1" index="1" speed="6.08" length="7.74" shape="2098.40,2706.40 2098.10,2704.30 2097.20,2702.80 2095.70,2701.90 2093.60,2701.60"/>
    </edge>
    <edge id=":1031_2" function="internal">
        <lane id=":1031_2_0" index="0" speed="8.96" length="18.06" shape="2093.60,2695.20 2098.50,2695.90 2102.00,2698.00 2104.10,2701.50 2104.80,2706.40"/>
        <lane id=":1031_2_1" index="1" speed="7.66" length="12.90" shape="2093.60,2698.40 2097.10,2698.90 2099.60,2700.40 2101.10,2702.90 2101.60,2706.40"/>
    </edge>
    <edge id=":1072_0" function="internal">
        <lane id=":1072_0_0" index="0" speed="13.89" length="0.10" shape="2995.20,5250.00 2995.20,5250.00"/>
        <lane id=":1072_0_1" index="1" speed="13.89" length="0.10" shape="2998.40,5250.00 2998.40,5250.00"/>
    </edge>
    <edge id=":1072_2" function="internal">
        <lane id=":1072_2_0" index="0" speed="13.89" length="0.10" shape="3004.80,5250.00 3004.80,5250.00"/>
        <lane id=":1072_2_1" index="1" speed="13.89" length="0.10" shape="3001.60,5250.00 3001.60,5250.00"/>
    </edge>
    <edge id=":1197_0" function="internal">
        <lane id=":1197_0_0" index="0" speed="8.96" length="18.06" shape="3006.40,6154.80 3001.50,6154.10 2998.00,6152.00 2995.90,6148.50 2995.20,6143.60"/>
        <lane id=":1197_0_1" index="1" speed="7.66" length="12.90" shape="3006.40,6151.60 3002.90,6151.10 3000.40,6149.60 2998.90,6147.10 2998.40,6143.60"/>
    </edge>
    <edge id=":1197_2" function="internal">
        <lane id=":1197_2_0" index="0" speed="3.90" length="2.58" shape="3004.80,6143.60 3004.90,6144.30 3005.20,6144.80 3005.70,6145.10 3006.40,6145.20"/>
        <lane id=":1197_2_1" index="1" speed="6.08" length="7.74" shape="3001.60,6143.60 3001.90,6145.70 3002.80,6147.20 3004.30,6148.10 3006.40,6148.40"/>
    </edge>
    <edge id=":1265_0" function="internal">
        <lane id=":1265_0_0" index="0" speed="8.96" length="18.06" shape="3604.80,6443.60 3604.10,6448.50 3602.00,6452.00 3598.50,6454.10 3593.60,6454.80"/>
        <lane id=":1265_0_1" index="1" speed="7.66" length="12.90" shape="3601.60,6443.60 3601.10,6447.10 3599.60,6449.60 3597.10,6451.10 3593.60,6451.60"/>
    </edge>
    <edge id=":1265_2" function="internal">
        <lane id=":1265_2_0" index="0" speed="3.90" length="2.58" shape="3593.60,6445.20 3594.30,6445.10 3594.80,6444.80 3595.10,6444.30 3595.20,6443.60"/>
        <lane id=":1265_2_1" index="1" speed="6.08" length="7.74" shape="3593.60,6448.40 3595.70,6448.10 3597.20,6447.20 3598.10,6445.70 3598.40,6443.60"/>
    </edge>
    <edge id=":1296_0" function="internal">
        <lane id=":1296_0_0" index="0" speed="6.51" length="9.03" shape="3595.20,3760.40 3594.85,3757.95 3593.80,3756.20 3592.05,3755.15 3589.60,3754.80"/>
    </edge>
    <edge id=":1296_1" function="internal">
        <lane id=":1296_1_0" index="0" speed="13.89" length="20.80" shape="3595.20,3760.40 3595.20,3739.60"/>
        <lane id=":1296_1_1" index="1" speed="13.89" length="20.80" shape="3598.40,3760.40 3598.40,3739.60"/>
    </edge>
    <edge id=":1296_3" function="internal">
        <lane id=":1296_3_0" index="0" speed="9.26" length="5.01" shape="3598.40,3760.40 3599.11,3755.44"/>
    </edge>
    <edge id=":1296_4" function="internal">
        <lane id=":1296_4_0" index="0" speed="3.65" length="1.44" shape="3598.40,3760.40 3599.20,3759.20"/>
    </edge>
    <edge id=":1296_20" function="internal">
        <lane id=":1296_20_0" index="0" speed="9.26" length="14.34" shape="3599.11,3755.44 3599.15,3755.15 3601.40,3751.40 3605.15,3749.15 3610.40,3748.40"/>
    </edge>
    <edge id=":1296_21" function="internal">
        <lane id=":1296_21_0" index="0" speed="3.65" length="3.23" shape="3599.20,3759.20 3600.00,3758.80 3600.80,3759.20 3601.60,3760.40"/>
    </edge>
    <edge id=":1296_5" function="internal">
        <lane id=":1296_5_0" index="0" speed="6.51" length="9.03" shape="3610.40,3754.80 3607.95,3755.15 3606.20,3756.20 3605.15,3757.95 3604.80,3760.40"/>
    </edge>
    <edge id=":1296_6" function="internal">
        <lane id=":1296_6_0" index="0" speed="13.89" length="20.80" shape="3610.40,3754.80 3589.60,3754.80"/>
        <lane id=":1296_6_1" index="1" speed="13.89" length="20.80" shape="3610.40,3751.60 3589.60,3751.60"/>
    </edge>
    <edge id=":1296_8" function="internal">
        <lane id=":1296_8_0" index="0" speed="9.26" length="5.01" shape="3610.40,3751.60 3605.44,3750.89"/>
    </edge>
    <edge id=":1296_9" function="internal">
        <lane id=":1296_9_0" index="0" speed="3.65" length="1.44" shape="3610.40,3751.60 3609.20,3750.80"/>
    </edge>
    <edge id=":1296_22" function="internal">
        <lane id=":1296_22_0" index="0" speed="9.26" length="14.34" shape="3605.44,3750.89 3605.15,3750.85 3601.40,3748.60 3599.15,3744.85 3598.40,3739.60"/>
    </edge>
    <edge id=":1296_23" function="internal">
        <lane id=":1296_23_0" index="0" speed="3.65" length="3.23" shape="3609.20,3750.80 3608.80,3750.00 3609.20,3749.20 3610.40,3748.40"/>
    </edge>
    <edge id=":1296_10" function="internal">
        <lane id=":1296_10_0" index="0" speed="6.51" length="9.03" shape="3604.80,3739.60 3605.15,3742.05 3606.20,3743.80 3607.95,3744.85 3610.40,3745.20"/>
    </edge>
    <edge id=":1296_11" function="internal">
        <lane id=":1296_11_0" index="0" speed="13.89" length="20.80" shape="3604.80,3739.60 3604.80,3760.40"/>
        <lane id=":1296_11_1" index="1" speed="13.89" length="20.80" shape="3601.60,3739.60 3601.60,3760.40"/>
    </edge>
    <edge id=":1296_13" function="internal">
        <lane id=":1296_13_0" index="0" speed="9.26" length="5.01" shape="3601.60,3739.60 3600.89,3744.56"/>
    </edge>
    <edge id=":1296_14" function="internal">
        <lane id=":1296_14_0" index="0" speed="3.65" length="1.44" shape="3601.60,3739.60 3600.80,3740.80"/>
    </edge>
    <edge id=":1296_24" function="internal">
        <lane id=":1296_24_0" index="0" speed="9.26" length="14.34" shape="3600.89,3744.56 3600.85,3744.85 3598.60,3748.60 3594.85,3750.85 3589.60,3751.60"/>
    </edge>
    <edge id=":1296_25" function="internal">
        <lane id=":1296_25_0" index="0" speed="3.65" length="3.23" shape="3600.80,3740.80 3600.00,3741.20 3599.20,3740.80 3598.40,3739.60"/>
    </edge>
    <edge id=":1296_15" function="internal">
        <lane id=":1296_15_0" index="0" speed="6.51" length="9.03" shape="3589.60,3745.20 3592.05,3744.85 3593.80,3743.80 3594.85,3742.05 3595.20,3739.60"/>
    </edge>
    <edge id=":1296_16" function="internal">
        <lane id=":1296_16_0" index="0" speed="13.89" length="20.80" shape="3589.60,3745.20 3610.40,3745.20"/>
        <lane id=":1296_16_1" index="1" speed="13.89" length="20.80" shape="3589.60,3748.40 3610.40,3748.40"/>
    </edge>
    <edge id=":1296_18" function="internal">
        <lane id=":1296_18_0" index="0" speed="9.26" length="5.01" shape="3589.60,3748.40 3594.56,3749.11"/>
    </edge>
    <edge id=":1296_19" function="internal">
        <lane id=":1296_19_0" index="0" speed="3.65" length="1.44" shape="3589.60,3748.40 3590.80,3749.20"/>
    </edge>
    <edge id=":1296_26" function="internal">
        <lane id=":1296_26_0" index="0" speed="9.26" length="14.34" shape="3594.56,3749.11 3594.85,3749.15 3598.60,3751.40 3600.85,3755.15 3601.60,3760.40"/>
    </edge>
    <edge id=":1296_27" function="internal">
        <lane id=":1296_27_0" index="0" speed="3.65" length="3.23" shape="3590.80,3749.20 3591.20,3750.00 3590.80,3750.80 3589.60,3751.60"/>
    </edge>
    <edge id=":1364_0" function="internal">
        <lane id=":1364_0_0" index="0" speed="13.89" length="0.10" shape="1950.00,5104.80 1950.00,5104.80"/>
        <lane id=":1364_0_1" index="1" speed="13.89" length="0.10" shape="1950.00,5101.60 1950.00,5101.60"/>
    </edge>
    <edge id=":1364_2" function="internal">
        <lane id=":1364_2_0" index="0" speed="13.89" length="0.10" shape="1950.00,5095.20 1950.00,5095.20"/>
        <lane id=":1364_2_1" index="1" speed="13.89" length="0.10" shape="1950.00,5098.40 1950.00,5098.40"/>
    </edge>
    <edge id=":1377_0" function="internal">
        <lane id=":1377_0_0" index="0" speed="3.65" length="4.67" shape="2698.40,2400.00 2699.20,2398.80 2700.00,2398.40 2700.80,2398.80 2701.60,2400.00"/>
    </edge>
    <edge id=":14_0" function="internal">
        <lane id=":14_0_0" index="0" speed="8.96" length="18.06" shape="2704.80,5243.60 2704.10,5248.50 2702.00,5252.00 2698.50,5254.10 2693.60,5254.80"/>
        <lane id=":14_0_1" index="1" speed="7.66" length="12.90" shape="2701.60,5243.60 2701.10,5247.10 2699.60,5249.60 2697.10,5251.10 2693.60,5251.60"/>
    </edge>
    <edge id=":14_2" function="internal">
        <lane id=":14_2_0" index="0" speed="3.90" length="2.58" shape="2693.60,5245.20 2694.30,5245.10 2694.80,5244.80 2695.10,5244.30 2695.20,5243.60"/>
        <lane id=":14_2_1" index="1" speed="6.08" length="7.74" shape="2693.60,5248.40 2695.70,5248.10 2697.20,5247.20 2698.10,5245.70 2698.40,5243.60"/>
    </edge>
    <edge id=":1406_0" function="internal">
        <lane id=":1406_0_0" index="0" speed="13.89" length="20.80" shape="3610.40,4654.80 3589.60,4654.80"/>
        <lane id=":1406_0_1" index="1" speed="13.89" length="20.80" shape="3610.40,4651.60 3589.60,4651.60"/>
    </edge>
    <edge id=":1406_2" function="internal">
        <lane id=":1406_2_0" index="0" speed="9.26" length="5.01" shape="3610.40,4651.60 3605.44,4650.89"/>
    </edge>
    <edge id=":1406_3" function="internal">
        <lane id=":1406_3_0" index="0" speed="3.65" length="1.44" shape="3610.40,4651.60 3609.20,4650.80"/>
    </edge>
    <edge id=":1406_12" function="internal">
        <lane id=":1406_12_0" index="0" speed="9.26" length="14.34" shape="3605.44,4650.89 3605.15,4650.85 3601.40,4648.60 3599.15,4644.85 3598.40,4639.60"/>
    </edge>
    <edge id=":1406_13" function="internal">
        <lane id=":1406_13_0" index="0" speed="3.65" length="3.23" shape="3609.20,4650.80 3608.80,4650.00 3609.20,4649.20 3610.40,4648.40"/>
    </edge>
    <edge id=":1406_4" function="internal">
        <lane id=":1406_4_0" index="0" speed="6.51" length="9.03" shape="3604.80,4639.60 3605.15,4642.05 3606.20,4643.80 3607.95,4644.85 3610.40,4645.20"/>
        <lane id=":1406_4_1" index="1" speed="8.00" length="14.19" shape="3601.60,4639.60 3602.15,4643.45 3603.80,4646.20 3606.55,4647.85 3610.40,4648.40"/>
    </edge>
    <edge id=":1406_6" function="internal">
        <lane id=":1406_6_0" index="0" speed="9.26" length="19.35" shape="3601.60,4639.60 3600.85,4644.85 3598.60,4648.60 3594.85,4650.85 3589.60,4651.60"/>
    </edge>
    <edge id=":1406_7" function="internal">
        <lane id=":1406_7_0" index="0" speed="3.65" length="2.34" shape="3601.60,4639.60 3600.80,4640.80 3600.00,4641.20"/>
    </edge>
    <edge id=":1406_14" function="internal">
        <lane id=":1406_14_0" index="0" speed="3.65" length="2.34" shape="3600.00,4641.20 3599.20,4640.80 3598.40,4639.60"/>
    </edge>
    <edge id=":1406_8" function="internal">
        <lane id=":1406_8_0" index="0" speed="6.51" length="9.03" shape="3589.60,4645.20 3592.05,4644.85 3593.80,4643.80 3594.85,4642.05 3595.20,4639.60"/>
    </edge>
    <edge id=":1406_9" function="internal">
        <lane id=":1406_9_0" index="0" speed="13.89" length="20.80" shape="3589.60,4645.20 3610.40,4645.20"/>
        <lane id=":1406_9_1" index="1" speed="13.89" length="20.80" shape="3589.60,4648.40 3610.40,4648.40"/>
    </edge>
    <edge id=":1406_11" function="internal">
        <lane id=":1406_11_0" index="0" speed="3.65" length="1.44" shape="3589.60,4648.40 3590.80,4649.20"/>
    </edge>
    <edge id=":1406_15" function="internal">
        <lane id=":1406_15_0" index="0" speed="3.65" length="3.23" shape="3590.80,4649.20 3591.20,4650.00 3590.80,4650.80 3589.60,4651.60"/>
    </edge>
    <edge id=":1436_0" function="internal">
        <lane id=":1436_0_0" index="0" speed="13.89" length="0.10" shape="3750.00,4654.80 3750.00,4654.80"/>
        <lane id=":1436_0_1" index="1" speed="13.89" length="0.10" shape="3750.00,4651.60 3750.00,4651.60"/>
    </edge>
    <edge id=":1436_2" function="internal">
        <lane id=":1436_2_0" index="0" speed="13.89" length="0.10" shape="3750.00,4645.20 3750.00,4645.20"/>
        <lane id=":1436_2_1" index="1" speed="13.89" length="0.10" shape="3750.00,4648.40 3750.00,4648.40"/>
    </edge>
    <edge id=":1450_0" function="internal">
        <lane id=":1450_0_0" index="0" speed="3.65" length="4.67" shape="3450.00,4651.60 3448.80,4650.80 3448.40,4650.00 3448.80,4649.20 3450.00,4648.40"/>
    </edge>
    <edge id=":1564_0" function="internal">
        <lane id=":1564_0_0" index="0" speed="6.51" length="9.03" shape="1495.20,5560.40 1494.85,5557.95 1493.80,5556.20 1492.05,5555.15 1489.60,5554.80"/>
    </edge>
    <edge id=":1564_1" function="internal">
        <lane id=":1564_1_0" index="0" speed="13.89" length="20.80" shape="1495.20,5560.40 1495.20,5539.60"/>
        <lane id=":1564_1_1" index="1" speed="13.89" length="20.80" shape="1498.40,5560.40 1498.40,5539.60"/>
    </edge>
    <edge id=":1564_3" function="internal">
        <lane id=":1564_3_0" index="0" speed="3.65" length="1.44" shape="1498.40,5560.40 1499.20,5559.20"/>
    </edge>
    <edge id=":1564_12" function="internal">
        <lane id=":1564_12_0" index="0" speed="3.65" length="3.23" shape="1499.20,5559.20 1500.00,5558.80 1500.80,5559.20 1501.60,5560.40"/>
    </edge>
    <edge id=":1564_4" function="internal">
        <lane id=":1564_4_0" index="0" speed="13.89" length="20.80" shape="1504.80,5539.60 1504.80,5560.40"/>
        <lane id=":1564_4_1" index="1" speed="13.89" length="20.80" shape="1501.60,5539.60 1501.60,5560.40"/>
    </edge>
    <edge id=":1564_6" function="internal">
        <lane id=":1564_6_0" index="0" speed="9.26" length="5.01" shape="1501.60,5539.60 1500.89,5544.56"/>
    </edge>
    <edge id=":1564_7" function="internal">
        <lane id=":1564_7_0" index="0" speed="3.65" length="1.44" shape="1501.60,5539.60 1500.80,5540.80"/>
    </edge>
    <edge id=":1564_13" function="internal">
        <lane id=":1564_13_0" index="0" speed="9.26" length="14.34" shape="1500.89,5544.56 1500.85,5544.85 1498.60,5548.60 1494.85,5550.85 1489.60,5551.60"/>
    </edge>
    <edge id=":1564_14" function="internal">
        <lane id=":1564_14_0" index="0" speed="3.65" length="3.23" shape="1500.80,5540.80 1500.00,5541.20 1499.20,5540.80 1498.40,5539.60"/>
    </edge>
    <edge id=":1564_8" function="internal">
        <lane id=":1564_8_0" index="0" speed="6.51" length="9.03" shape="1489.60,5545.20 1492.05,5544.85 1493.80,5543.80 1494.85,5542.05 1495.20,5539.60"/>
        <lane id=":1564_8_1" index="1" speed="8.00" length="14.19" shape="1489.60,5548.40 1493.45,5547.85 1496.20,5546.20 1497.85,5543.45 1498.40,5539.60"/>
    </edge>
    <edge id=":1564_10" function="internal">
        <lane id=":1564_10_0" index="0" speed="9.26" length="19.35" shape="1489.60,5548.40 1494.85,5549.15 1498.60,5551.40 1500.85,5555.15 1501.60,5560.40"/>
    </edge>
    <edge id=":1564_11" function="internal">