<?xml version="1.0" encoding="UTF-8"?>

<!-- generated on 2025-04-14 12:45:24 by Eclipse SUMO netgenerate Version 1.22.0
<netgenerateConfiguration xmlns:xsi="http://www.w3.org/2001/XMLSchema-instance" xsi:noNamespaceSchemaLocation="http://sumo.dlr.de/xsd/netgenerateConfiguration.xsd">

    <random_network>
        <rand value="true"/>
        <rand.iterations value="501"/>
        <rand.max-distance value="1016.2126851398513"/>
        <rand.min-distance value="150.0"/>
        <rand.min-angle value="53.20456113277895"/>
        <rand.neighbor-dist1 value="3.0"/>
        <rand.neighbor-dist2 value="1.0"/>
        <rand.neighbor-dist3 value="0.0"/>
        <rand.neighbor-dist4 value="5.0"/>
        <rand.neighbor-dist5 value="0.0"/>
        <rand.neighbor-dist6 value="0.0"/>
    </random_network>

    <output>
        <output-file value="configs/rand-configs/rand2.net.xml"/>
    </output>

    <tls_building>
        <tls.guess value="true"/>
        <tls.guess.threshold value="0"/>
    </tls_building>

</netgenerateConfiguration>
-->

<net version="1.20" junctionCornerDetail="5" limitTurnSpeed="5.50" xmlns:xsi="http://www.w3.org/2001/XMLSchema-instance" xsi:noNamespaceSchemaLocation="http://sumo.dlr.de/xsd/net_file.xsd">

    <location netOffset="5856.24,5385.08" convBoundary="0.00,0.00,16550.53,12699.32" origBoundary="-5856.24,-5385.08,10694.29,7314.24" projParameter="!"/>

    <edge id=":1_0" function="internal">
        <lane id=":1_0_0" index="0" speed="5.98" length="9.08" shape="5854.77,5393.38 5854.36,5390.81 5853.23,5389.23 5851.38,5388.65 5848.81,5389.06"/>
    </edge>
    <edge id=":1_1" function="internal">
        <lane id=":1_1_0" index="0" speed="13.89" length="14.86" shape="5854.77,5393.38 5854.63,5389.65 5854.32,5385.96 5853.80,5382.30 5853.05,5378.65"/>
    </edge>
    <edge id=":1_2" function="internal">
        <lane id=":1_2_0" index="0" speed="8.09" length="4.36" shape="5854.77,5393.38 5855.26,5389.04"/>
    </edge>
    <edge id=":1_3" function="internal">
        <lane id=":1_3_0" index="0" speed="3.65" length="1.44" shape="5854.77,5393.38 5855.55,5392.16"/>
    </edge>
    <edge id=":1_16" function="internal">
        <lane id=":1_16_0" index="0" speed="8.09" length="10.76" shape="5855.26,5389.04 5856.91,5385.99 5859.72,5384.23 5863.67,5383.76"/>
    </edge>
    <edge id=":1_17" function="internal">
        <lane id=":1_17_0" index="0" speed="3.65" length="3.23" shape="5855.55,5392.16 5856.34,5391.75 5857.15,5392.14 5857.97,5393.33"/>
    </edge>
    <edge id=":1_4" function="internal">
        <lane id=":1_4_0" index="0" speed="6.62" length="9.76" shape="5863.55,5386.96 5861.07,5387.27 5859.31,5388.44 5858.28,5390.46 5857.97,5393.33"/>
    </edge>
    <edge id=":1_5" function="internal">
        <lane id=":1_5_0" index="0" speed="13.89" length="14.95" shape="5863.55,5386.96 5859.81,5387.00 5856.10,5387.38 5852.42,5388.08 5848.81,5389.06"/>
    </edge>
    <edge id=":1_6" function="internal">
        <lane id=":1_6_0" index="0" speed="9.03" length="3.93" shape="5863.55,5386.96 5859.67,5386.32"/>
    </edge>
    <edge id=":1_7" function="internal">
        <lane id=":1_7_0" index="0" speed="3.65" length="1.44" shape="5863.55,5386.96 5862.38,5386.11"/>
    </edge>
    <edge id=":1_18" function="internal">
        <lane id=":1_18_0" index="0" speed="9.03" length="10.59" shape="5859.67,5386.32 5856.63,5384.72 5854.42,5382.16 5853.05,5378.65"/>
    </edge>
    <edge id=":1_19" function="internal">
        <lane id=":1_19_0" index="0" speed="3.65" length="3.23" shape="5862.38,5386.11 5862.01,5385.30 5862.44,5384.51 5863.67,5383.76"/>
    </edge>
    <edge id=":1_8" function="internal">
        <lane id=":1_8_0" index="0" speed="7.70" length="10.32" shape="5856.16,5377.90 5857.13,5380.38 5858.71,5382.18 5860.89,5383.31 5863.67,5383.76"/>
    </edge>
    <edge id=":1_9" function="internal">
        <lane id=":1_9_0" index="0" speed="13.89" length="15.56" shape="5856.16,5377.90 5856.92,5381.66 5857.47,5385.56 5857.81,5389.49 5857.97,5393.33"/>
    </edge>
    <edge id=":1_10" function="internal">
        <lane id=":1_10_0" index="0" speed="8.41" length="4.08" shape="5856.16,5377.90 5856.44,5381.70 5856.35,5381.96"/>
    </edge>
    <edge id=":1_11" function="internal">
        <lane id=":1_11_0" index="0" speed="3.65" length="1.44" shape="5856.16,5377.90 5855.66,5379.25"/>
    </edge>
    <edge id=":1_20" function="internal">
        <lane id=":1_20_0" index="0" speed="8.41" length="10.92" shape="5856.35,5381.96 5855.31,5384.82 5852.77,5387.28 5848.81,5389.06"/>
    </edge>
    <edge id=":1_21" function="internal">
        <lane id=":1_21_0" index="0" speed="3.65" length="3.23" shape="5855.66,5379.25 5854.98,5379.83 5854.10,5379.63 5853.05,5378.65"/>
    </edge>
    <edge id=":1_12" function="internal">
        <lane id=":1_12_0" index="0" speed="7.00" length="10.09" shape="5847.86,5386.00 5850.61,5384.79 5852.39,5383.16 5853.20,5381.11 5853.05,5378.65"/>
    </edge>
    <edge id=":1_13" function="internal">
        <lane id=":1_13_0" index="0" speed="13.89" length="16.03" shape="5847.86,5386.00 5851.64,5385.00 5855.68,5384.25 5859.76,5383.82 5863.67,5383.76"/>
    </edge>
    <edge id=":1_14" function="internal">
        <lane id=":1_14_0" index="0" speed="7.59" length="4.78" shape="5847.86,5386.00 5852.22,5385.30 5852.56,5385.41"/>
    </edge>
    <edge id=":1_15" function="internal">
        <lane id=":1_15_0" index="0" speed="3.65" length="1.44" shape="5847.86,5386.00 5849.24,5386.41"/>
    </edge>
    <edge id=":1_22" function="internal">
        <lane id=":1_22_0" index="0" speed="7.59" length="10.63" shape="5852.56,5385.41 5855.36,5386.29 5857.27,5388.96 5857.97,5393.33"/>
    </edge>
    <edge id=":1_23" function="internal">
        <lane id=":1_23_0" index="0" speed="3.65" length="3.23" shape="5849.24,5386.41 5849.86,5387.06 5849.72,5387.94 5848.81,5389.06"/>
    </edge>
    <edge id=":10_0" function="internal">
        <lane id=":10_0_0" index="0" speed="10.98" length="14.47" shape="5331.19,5557.00 5328.66,5554.31 5325.73,5552.41 5322.38,5551.31 5318.63,5551.01"/>
    </edge>
    <edge id=":10_1" function="internal">
        <lane id=":10_1_0" index="0" speed="13.89" length="17.57" shape="5331.19,5557.00 5328.83,5553.59 5326.42,5549.63 5324.20,5545.56 5322.43,5541.81"/>
    </edge>
    <edge id=":10_2" function="internal">
        <lane id=":10_2_0" index="0" speed="7.53" length="4.86" shape="5331.19,5557.00 5328.99,5553.02 5328.98,5552.71"/>
    </edge>
    <edge id=":10_3" function="internal">
        <lane id=":10_3_0" index="0" speed="3.65" length="1.44" shape="5331.19,5557.00 5331.11,5555.56"/>
    </edge>
    <edge id=":10_16" function="internal">
        <lane id=":10_16_0" index="0" speed="7.53" length="10.86" shape="5328.98,5552.71 5328.89,5549.71 5330.90,5547.09 5335.01,5545.15"/>
    </edge>
    <edge id=":10_17" function="internal">
        <lane id=":10_17_0" index="0" speed="3.65" length="3.23" shape="5331.11,5555.56 5331.51,5554.76 5332.39,5554.60 5333.75,5555.07"/>
    </edge>
    <edge id=":10_4" function="internal">
        <lane id=":10_4_0" index="0" speed="5.89" length="9.11" shape="5335.96,5548.20 5333.58,5549.33 5332.41,5550.85 5332.47,5552.76 5333.75,5555.07"/>
    </edge>
    <edge id=":10_5" function="internal">
        <lane id=":10_5_0" index="0" speed="13.89" length="17.59" shape="5335.96,5548.20 5331.94,5549.25 5327.38,5550.12 5322.78,5550.73 5318.63,5551.01"/>
    </edge>
    <edge id=":10_6" function="internal">
        <lane id=":10_6_0" index="0" speed="8.80" length="5.01" shape="5335.96,5548.20 5332.11,5548.47 5331.01,5548.14"/>
    </edge>
    <edge id=":10_7" function="internal">
        <lane id=":10_7_0" index="0" speed="3.65" length="1.44" shape="5335.96,5548.20 5334.58,5547.79"/>
    </edge>
    <edge id=":10_18" function="internal">
        <lane id=":10_18_0" index="0" speed="8.80" length="11.03" shape="5331.01,5548.14 5328.14,5547.28 5324.70,5544.95 5322.43,5541.81"/>
    </edge>
    <edge id=":10_19" function="internal">
        <lane id=":10_19_0" index="0" speed="3.65" length="3.23" shape="5334.58,5547.79 5333.96,5547.15 5334.11,5546.27 5335.01,5545.15"/>
    </edge>
    <edge id=":10_8" function="internal">
        <lane id=":10_8_0" index="0" speed="7.66" length="11.92" shape="5325.37,5540.56 5327.05,5543.35 5329.21,5545.05 5331.87,5545.65 5335.01,5545.15"/>
    </edge>
    <edge id=":10_9" function="internal">
        <lane id=":10_9_0" index="0" speed="13.89" length="16.79" shape="5325.37,5540.56 5327.08,5544.20 5329.17,5548.04 5331.45,5551.77 5333.75,5555.07"/>
    </edge>
    <edge id=":10_10" function="internal">
        <lane id=":10_10_0" index="0" speed="7.50" length="4.02" shape="5325.37,5540.56 5326.42,5544.44"/>
    </edge>
    <edge id=":10_11" function="internal">
        <lane id=":10_11_0" index="0" speed="3.65" length="1.44" shape="5325.37,5540.56 5325.11,5541.97"/>
    </edge>
    <edge id=":10_20" function="internal">
        <lane id=":10_20_0" index="0" speed="7.50" length="11.88" shape="5326.42,5544.44 5326.58,5545.03 5325.86,5548.27 5323.21,5550.26 5318.63,5551.01"/>
    </edge>
    <edge id=":10_21" function="internal">
        <lane id=":10_21_0" index="0" speed="3.65" length="3.23" shape="5325.11,5541.97 5324.53,5542.65 5323.64,5542.60 5322.43,5541.81"/>
    </edge>
    <edge id=":10_12" function="internal">
        <lane id=":10_12_0" index="0" speed="5.84" length="9.13" shape="5318.56,5547.81 5321.19,5547.38 5322.71,5546.24 5323.12,5544.38 5322.43,5541.81"/>
    </edge>
    <edge id=":10_13" function="internal">
        <lane id=":10_13_0" index="0" speed="13.89" length="16.71" shape="5318.56,5547.81 5322.57,5547.55 5326.87,5546.99 5331.13,5546.17 5335.01,5545.15"/>
    </edge>
    <edge id=":10_14" function="internal">
        <lane id=":10_14_0" index="0" speed="11.95" length="4.50" shape="5318.56,5547.81 5322.55,5548.37 5322.99,5548.54"/>
    </edge>
    <edge id=":10_15" function="internal">
        <lane id=":10_15_0" index="0" speed="3.65" length="1.44" shape="5318.56,5547.81 5319.78,5548.58"/>
    </edge>
    <edge id=":10_22" function="internal">
        <lane id=":10_22_0" index="0" speed="11.95" length="12.75" shape="5322.99,5548.54 5326.89,5550.00 5330.86,5552.34 5333.75,5555.07"/>
    </edge>
    <edge id=":10_23" function="internal">
        <lane id=":10_23_0" index="0" speed="3.65" length="3.23" shape="5319.78,5548.58 5320.20,5549.37 5319.82,5550.18 5318.63,5551.01"/>
    </edge>
    <edge id=":10024_0" function="internal">
        <lane id=":10024_0_0" index="0" speed="13.89" length="14.45" shape="2985.21,3977.83 2973.00,3970.08"/>
    </edge>
    <edge id=":10024_1" function="internal">
        <lane id=":10024_1_0" index="0" speed="7.57" length="4.25" shape="2985.21,3977.83 2982.05,3974.98"/>
    </edge>
    <edge id=":10024_2" function="internal">
        <lane id=":10024_2_0" index="0" speed="3.65" length="1.44" shape="2985.21,3977.83 2984.66,3976.49"/>
    </edge>
    <edge id=":10024_9" function="internal">
        <lane id=":10024_9_0" index="0" speed="7.57" length="11.26" shape="2982.05,3974.98 2981.89,3974.84 2980.71,3971.77 2981.64,3968.61 2984.69,3965.36"/>
    </edge>
    <edge id=":10024_10" function="internal">
        <lane id=":10024_10_0" index="0" speed="3.65" length="3.23" shape="2984.66,3976.49 2984.77,3975.61 2985.55,3975.17 2986.99,3975.17"/>
    </edge>
    <edge id=":10024_3" function="internal">
        <lane id=":10024_3_0" index="0" speed="5.95" length="9.09" shape="2986.69,3967.86 2984.90,3969.77 2984.35,3971.62 2985.05,3973.42 2986.99,3975.17"/>
    </edge>
    <edge id=":10024_4" function="internal">
        <lane id=":10024_4_0" index="0" speed="9.53" length="14.80" shape="2986.69,3967.86 2983.06,3970.22 2979.58,3971.37 2976.22,3971.33 2973.00,3970.08"/>
    </edge>
    <edge id=":10024_5" function="internal">
        <lane id=":10024_5_0" index="0" speed="3.65" length="1.44" shape="2986.69,3967.86 2985.25,3967.99"/>
    </edge>
    <edge id=":10024_11" function="internal">
        <lane id=":10024_11_0" index="0" speed="3.65" length="3.23" shape="2985.25,3967.99 2984.44,3967.61 2984.25,3966.74 2984.69,3965.36"/>
    </edge>
    <edge id=":10024_6" function="internal">
        <lane id=":10024_6_0" index="0" speed="8.26" length="10.93" shape="2974.62,3967.32 2976.90,3968.17 2979.34,3968.12 2981.94,3967.19 2984.69,3965.36"/>
    </edge>
    <edge id=":10024_7" function="internal">
        <lane id=":10024_7_0" index="0" speed="13.89" length="14.65" shape="2974.62,3967.32 2986.99,3975.17"/>
    </edge>
    <edge id=":10024_8" function="internal">
        <lane id=":10024_8_0" index="0" speed="3.65" length="1.44" shape="2974.62,3967.32 2975.25,3968.62"/>
    </edge>
    <edge id=":10024_12" function="internal">
        <lane id=":10024_12_0" index="0" speed="3.65" length="3.23" shape="2975.25,3968.62 2975.19,3969.51 2974.44,3970.00 2973.00,3970.08"/>
    </edge>
    <edge id=":1004_0" function="internal">
        <lane id=":1004_0_0" index="0" speed="6.96" length="10.33" shape="10821.89,6412.20 10818.99,6410.98 10816.52,6410.79 10814.47,6411.64 10812.85,6413.53"/>
    </edge>
    <edge id=":1004_1" function="internal">
        <lane id=":1004_1_0" index="0" speed="13.78" length="17.97" shape="10821.89,6412.20 10818.16,6409.62 10815.12,6406.46 10812.80,6402.71 10811.18,6398.37"/>
    </edge>
    <edge id=":1004_2" function="internal">
        <lane id=":1004_2_0" index="0" speed="7.53" length="5.82" shape="10821.89,6412.20 10818.22,6409.40 10817.72,6408.31"/>
    </edge>
    <edge id=":1004_3" function="internal">
        <lane id=":1004_3_0" index="0" speed="3.65" length="1.44" shape="10821.89,6412.20 10821.24,6410.92"/>
    </edge>
    <edge id=":1004_16" function="internal">
        <lane id=":1004_16_0" index="0" speed="7.53" length="10.23" shape="10817.72,6408.31 10816.84,6406.37 10817.76,6403.13 10820.97,6399.67"/>
    </edge>
    <edge id=":1004_17" function="internal">
        <lane id=":1004_17_0" index="0" speed="3.65" length="3.23" shape="10821.24,6410.92 10821.28,6410.02 10822.02,6409.52 10823.46,6409.41"/>
    </edge>
    <edge id=":1004_4" function="internal">
        <lane id=":1004_4_0" index="0" speed="5.89" length="9.29" shape="10823.00,6402.15 10821.12,6404.16 10820.57,6406.04 10821.35,6407.79 10823.46,6409.41"/>
    </edge>
    <edge id=":1004_5" function="internal">
        <lane id=":1004_5_0" index="0" speed="13.89" length="15.32" shape="10823.00,6402.15 10820.14,6404.65 10817.42,6407.41 10814.96,6410.37 10812.85,6413.53"/>
    </edge>
    <edge id=":1004_6" function="internal">
        <lane id=":1004_6_0" index="0" speed="7.47" length="4.02" shape="10823.00,6402.15 10819.56,6404.24"/>
    </edge>
    <edge id=":1004_7" function="internal">
        <lane id=":1004_7_0" index="0" speed="3.65" length="1.44" shape="10823.00,6402.15 10821.56,6402.29"/>
    </edge>
    <edge id=":1004_18" function="internal">
        <lane id=":1004_18_0" index="0" speed="7.47" length="12.10" shape="10819.56,6404.24 10818.95,6404.62 10815.64,6404.81 10813.04,6402.73 10811.18,6398.37"/>
    </edge>
    <edge id=":1004_19" function="internal">
        <lane id=":1004_19_0" index="0" speed="3.65" length="3.23" shape="10821.56,6402.29 10820.75,6401.92 10820.55,6401.05 10820.97,6399.67"/>
    </edge>
    <edge id=":1004_8" function="internal">
        <lane id=":1004_8_0" index="0" speed="5.79" length="9.15" shape="10814.27,6397.53 10815.32,6400.00 10816.80,6401.18 10818.68,6401.07 10820.97,6399.67"/>
    </edge>
    <edge id=":1004_9" function="internal">
        <lane id=":1004_9_0" index="0" speed="12.79" length="15.42" shape="10814.27,6397.53 10815.66,6401.26 10817.65,6404.48 10820.25,6407.20 10823.46,6409.41"/>
    </edge>
    <edge id=":1004_10" function="internal">
        <lane id=":1004_10_0" index="0" speed="13.19" length="4.20" shape="10814.27,6397.53 10815.06,6401.66"/>
    </edge>
    <edge id=":1004_11" function="internal">
        <lane id=":1004_11_0" index="0" speed="3.65" length="1.44" shape="10814.27,6397.53 10813.81,6398.90"/>
    </edge>
    <edge id=":1004_20" function="internal">
        <lane id=":1004_20_0" index="0" speed="13.19" length="12.28" shape="10815.06,6401.66 10815.13,6402.00 10815.18,6406.16 10814.42,6410.00 10812.85,6413.53"/>
    </edge>
    <edge id=":1004_21" function="internal">
        <lane id=":1004_21_0" index="0" speed="3.65" length="3.23" shape="10813.81,6398.90 10813.14,6399.49 10812.27,6399.32 10811.18,6398.37"/>
    </edge>
    <edge id=":1004_12" function="internal">
        <lane id=":1004_12_0" index="0" speed="12.16" length="13.94" shape="10810.09,6411.91 10811.38,6408.97 10812.00,6405.74 10811.93,6402.20 10811.18,6398.37"/>
    </edge>
    <edge id=":1004_13" function="internal">
        <lane id=":1004_13_0" index="0" speed="13.89" length="16.45" shape="10810.09,6411.91 10812.31,6408.62 10815.03,6405.36 10818.00,6402.31 10820.97,6399.67"/>
    </edge>
    <edge id=":1004_14" function="internal">
        <lane id=":1004_14_0" index="0" speed="8.38" length="4.26" shape="10810.09,6411.91 10812.57,6408.94 10812.92,6408.78"/>
    </edge>
    <edge id=":1004_15" function="internal">
        <lane id=":1004_15_0" index="0" speed="3.65" length="1.44" shape="10810.09,6411.91 10811.39,6411.28"/>
    </edge>
    <edge id=":1004_22" function="internal">
        <lane id=":1004_22_0" index="0" speed="8.38" length="11.15" shape="10812.92,6408.78 10815.63,6407.53 10819.26,6407.69 10823.46,6409.41"/>
    </edge>
    <edge id=":1004_23" function="internal">
        <lane id=":1004_23_0" index="0" speed="3.65" length="3.23" shape="10811.39,6411.28 10812.28,6411.34 10812.77,6412.09 10812.85,6413.53"/>
    </edge>
    <edge id=":10090_0" function="internal">
        <lane id=":10090_0_0" index="0" speed="3.65" length="4.67" shape="2092.98,5216.49 2091.90,5215.53 2091.61,5214.68 2092.11,5213.94 2093.41,5213.32"/>
    </edge>
    <edge id=":101_0" function="internal">
        <lane id=":101_0_0" index="0" speed="13.89" length="0.38" shape="6422.24,4090.22 6422.13,4090.26 6422.06,4090.29 6422.00,4090.33 6421.91,4090.40"/>
    </edge>
    <edge id=":101_1" function="internal">
        <lane id=":101_1_0" index="0" speed="13.89" length="1.13" shape="6420.08,4087.77 6420.36,4087.58 6420.55,4087.46 6420.76,4087.36 6421.07,4087.24"/>
    </edge>
    <edge id=":10195_0" function="internal">
        <lane id=":10195_0_0" index="0" speed="13.89" length="1.03" shape="1680.61,7543.83 1680.43,7544.08 1680.30,7544.24 1680.16,7544.40 1679.94,7544.61"/>
    </edge>
    <edge id=":10195_1" function="internal">
        <lane id=":10195_1_0" index="0" speed="13.89" length="0.34" shape="1677.75,7542.27 1677.82,7542.20 1677.87,7542.15 1677.92,7542.09 1677.97,7542.01"/>
    </edge>
    <edge id=":10198_0" function="internal">
        <lane id=":10198_0_0" index="0" speed="3.91" length="2.44" shape="3953.82,6289.34 3953.28,6288.96 3952.74,6288.83 3952.19,6288.94 3951.65,6289.31"/>
    </edge>
    <edge id=":10198_1" function="internal">
        <lane id=":10198_1_0" index="0" speed="6.09" length="7.31" shape="3949.51,6286.93 3951.16,6285.82 3952.79,6285.47 3954.42,6285.87 3956.03,6287.03"/>
    </edge>
    <edge id=":1020_0" function="internal">
        <lane id=":1020_0_0" index="0" speed="13.89" length="0.31" shape="4088.88,2969.09 4088.79,2969.06 4088.73,2969.05 4088.67,2969.04 4088.58,2969.03"/>
    </edge>
    <edge id=":1020_1" function="internal">
        <lane id=":1020_1_0" index="0" speed="13.89" length="0.92" shape="4088.91,2965.85 4089.18,2965.88 4089.37,2965.91 4089.55,2965.95 4089.81,2966.03"/>
    </edge>
    <edge id=":10202_0" function="internal">
        <lane id=":10202_0_0" index="0" speed="13.89" length="0.15" shape="3832.66,7663.75 3832.64,7663.71 3832.62,7663.69 3832.60,7663.66 3832.57,7663.63"/>
    </edge>
    <edge id=":10202_1" function="internal">
        <lane id=":10202_1_0" index="0" speed="13.89" length="0.45" shape="3835.01,7661.55 3835.10,7661.66 3835.15,7661.73 3835.21,7661.80 3835.29,7661.91"/>
    </edge>
    <edge id=":10214_0" function="internal">
        <lane id=":10214_0_0" index="0" speed="6.12" length="10.19" shape="2780.33,6439.73 2778.71,6437.24 2778.51,6435.13 2779.73,6433.39 2782.37,6432.04"/>
    </edge>
    <edge id=":10214_1" function="internal">
        <lane id=":10214_1_0" index="0" speed="3.93" length="3.40" shape="2783.43,6435.06 2782.54,6435.51 2782.14,6436.09 2782.20,6436.79 2782.75,6437.62"/>
    </edge>
    <edge id=":10324_0" function="internal">
        <lane id=":10324_0_0" index="0" speed="6.19" length="11.17" shape="11640.70,3851.38 11643.00,3853.80 11643.57,3855.97 11642.41,3857.89 11639.52,3859.56"/>
    </edge>
    <edge id=":10324_1" function="internal">
        <lane id=":10324_1_0" index="0" speed="3.96" length="3.72" shape="11638.30,3856.60 11639.27,3856.04 11639.65,3855.40 11639.46,3854.68 11638.69,3853.87"/>
    </edge>
    <edge id=":10328_0" function="internal">
        <lane id=":10328_0_0" index="0" speed="4.23" length="1.26" shape="10596.57,3654.47 10596.23,3654.33 10595.97,3654.28 10595.71,3654.31 10595.36,3654.43"/>
    </edge>
    <edge id=":10328_1" function="internal">
        <lane id=":10328_1_0" index="0" speed="6.71" length="3.79" shape="10594.24,3651.44 10595.29,3651.08 10596.07,3650.98 10596.84,3651.13 10597.87,3651.55"/>
    </edge>
    <edge id=":10342_0" function="internal">
        <lane id=":10342_0_0" index="0" speed="13.89" length="0.68" shape="11658.08,4443.51 11657.94,4443.36 11657.85,4443.26 11657.77,4443.14 11657.65,4442.98"/>
    </edge>
    <edge id=":10342_1" function="internal">
        <lane id=":10342_1_0" index="0" speed="13.89" length="0.23" shape="11660.27,4441.15 11660.31,4441.20 11660.34,4441.24 11660.37,4441.27 11660.42,4441.32"/>
    </edge>
    <edge id=":10389_0" function="internal">
        <lane id=":10389_0_0" index="0" speed="3.65" length="4.67" shape="8759.59,6215.21 8759.76,6213.78 8760.28,6213.06 8761.18,6213.05 8762.44,6213.75"/>
    </edge>
    <edge id=":10391_0" function="internal">
        <lane id=":10391_0_0" index="0" speed="6.10" length="9.55" shape="9045.65,6553.86 9047.69,6555.69 9048.43,6557.59 9047.88,6559.54 9046.02,6561.56"/>
    </edge>
    <edge id=":10391_1" function="internal">
        <lane id=":10391_1_0" index="0" speed="3.91" length="3.18" shape="9044.00,6559.09 9044.61,6558.42 9044.80,6557.76 9044.55,6557.13 9043.87,6556.52"/>
    </edge>
    <edge id=":105_0" function="internal">
        <lane id=":105_0_0" index="0" speed="6.10" length="7.08" shape="8054.77,6247.51 8053.55,6248.98 8052.12,6249.77 8050.49,6249.88 8048.67,6249.32"/>
    </edge>
    <edge id=":105_1" function="internal">
        <lane id=":105_1_0" index="0" speed="3.92" length="2.36" shape="8050.02,6246.42 8050.63,6246.61 8051.17,6246.57 8051.65,6246.30 8052.06,6245.82"/>
    </edge>
    <edge id=":1070_0" function="internal">
        <lane id=":1070_0_0" index="0" speed="5.64" length="9.27" shape="4211.54,3296.15 4209.59,3294.14 4207.83,3293.62 4206.27,3294.58 4204.91,3297.03"/>
    </edge>
    <edge id=":1070_1" function="internal">
        <lane id=":1070_1_0" index="0" speed="8.90" length="16.22" shape="4211.54,3296.15 4209.00,3291.89 4208.05,3288.02 4208.68,3284.57 4210.89,3281.53"/>
    </edge>
    <edge id=":1070_2" function="internal">
        <lane id=":1070_2_0" index="0" speed="3.65" length="1.44" shape="4211.54,3296.15 4211.47,3294.71"/>
    </edge>
    <edge id=":1070_9" function="internal">
        <lane id=":1070_9_0" index="0" speed="3.65" length="3.23" shape="4211.47,3294.71 4211.87,3293.92 4212.75,3293.76 4214.11,3294.24"/>
    </edge>
    <edge id=":1070_3" function="internal">
        <lane id=":1070_3_0" index="0" speed="7.58" length="11.51" shape="4213.09,3283.86 4211.68,3285.90 4211.37,3288.31 4212.19,3291.09 4214.11,3294.24"/>
    </edge>
    <edge id=":1070_4" function="internal">
        <lane id=":1070_4_0" index="0" speed="13.89" length="15.62" shape="4213.09,3283.86 4210.54,3286.71 4208.33,3289.99 4206.45,3293.49 4204.91,3297.03"/>
    </edge>
    <edge id=":1070_5" function="internal">
        <lane id=":1070_5_0" index="0" speed="3.65" length="1.44" shape="4213.09,3283.86 4211.67,3284.10"/>
    </edge>
    <edge id=":1070_10" function="internal">
        <lane id=":1070_10_0" index="0" speed="3.65" length="3.23" shape="4211.67,3284.10 4210.83,3283.79 4210.57,3282.93 4210.89,3281.53"/>
    </edge>
    <edge id=":1070_6" function="internal">
        <lane id=":1070_6_0" index="0" speed="13.89" length="16.99" shape="4201.93,3295.85 4203.60,3292.13 4205.74,3288.23 4208.22,3284.56 4210.89,3281.53"/>
    </edge>
    <edge id=":1070_7" function="internal">
        <lane id=":1070_7_0" index="0" speed="7.39" length="5.48" shape="4201.93,3295.85 4204.44,3291.36 4204.73,3291.18"/>
    </edge>
    <edge id=":1070_8" function="internal">
        <lane id=":1070_8_0" index="0" speed="3.65" length="1.44" shape="4201.93,3295.85 4203.12,3295.03"/>
    </edge>
    <edge id=":1070_11" function="internal">
        <lane id=":1070_11_0" index="0" speed="7.39" length="11.53" shape="4204.73,3291.18 4207.30,3289.59 4210.53,3290.55 4214.11,3294.24"/>
    </edge>
    <edge id=":1070_12" function="internal">
        <lane id=":1070_12_0" index="0" speed="3.65" length="3.23" shape="4203.12,3295.03 4204.01,3294.95 4204.61,3295.62 4204.91,3297.03"/>
    </edge>
    <edge id=":10725_0" function="internal">
        <lane id=":10725_0_0" index="0" speed="6.14" length="10.50" shape="1437.39,7776.25 1434.73,7774.69 1433.61,7772.84 1434.02,7770.72 1435.96,7768.32"/>
    </edge>
    <edge id=":10725_1" function="internal">
        <lane id=":10725_1_0" index="0" speed="3.94" length="3.50" shape="1438.15,7770.66 1437.50,7771.46 1437.36,7772.16 1437.74,7772.78 1438.62,7773.30"/>
    </edge>
    <edge id=":10728_0" function="internal">
        <lane id=":10728_0_0" index="0" speed="9.06" length="1.92" shape="4520.27,6829.48 4519.74,6829.27 4519.39,6829.09 4519.08,6828.86 4518.67,6828.47"/>
    </edge>
    <edge id=":10728_1" function="internal">
        <lane id=":10728_1_0" index="0" speed="13.89" length="0.64" shape="4520.88,6826.15 4521.02,6826.28 4521.12,6826.36 4521.24,6826.42 4521.41,6826.49"/>
    </edge>
    <edge id=":10730_0" function="internal">
        <lane id=":10730_0_0" index="0" speed="5.75" length="9.17" shape="4173.33,8151.54 4171.60,8149.44 4169.87,8148.73 4168.12,8149.41 4166.36,8151.47"/>
    </edge>
    <edge id=":10730_1" function="internal">
        <lane id=":10730_1_0" index="0" speed="13.89" length="16.39" shape="4173.33,8151.54 4164.38,8137.80"/>
    </edge>
    <edge id=":10730_2" function="internal">
        <lane id=":10730_2_0" index="0" speed="8.88" length="4.70" shape="4173.33,8151.54 4171.35,8147.27"/>
    </edge>
    <edge id=":10730_3" function="internal">
        <lane id=":10730_3_0" index="0" speed="3.65" length="1.44" shape="4173.33,8151.54 4173.38,8150.10"/>
    </edge>
    <edge id=":10730_16" function="internal">
        <lane id=":10730_16_0" index="0" speed="8.88" length="11.41" shape="4171.35,8147.27 4170.92,8143.45 4172.05,8140.06 4174.74,8137.11"/>
    </edge>
    <edge id=":10730_17" function="internal">
        <lane id=":10730_17_0" index="0" speed="3.65" length="3.23" shape="4173.38,8150.10 4173.85,8149.34 4174.74,8149.26 4176.05,8149.86"/>
    </edge>
    <edge id=":10730_4" function="internal">
        <lane id=":10730_4_0" index="0" speed="7.55" length="11.39" shape="4176.72,8139.62 4174.92,8141.65 4174.21,8144.03 4174.59,8146.77 4176.05,8149.86"/>
    </edge>
    <edge id=":10730_5" function="internal">
        <lane id=":10730_5_0" index="0" speed="13.89" length="15.80" shape="4176.72,8139.62 4173.82,8142.19 4171.08,8145.13 4168.57,8148.28 4166.36,8151.47"/>
    </edge>
    <edge id=":10730_6" function="internal">
        <lane id=":10730_6_0" index="0" speed="7.90" length="3.51" shape="4176.72,8139.62 4173.68,8141.38"/>
    </edge>
    <edge id=":10730_7" function="internal">
        <lane id=":10730_7_0" index="0" speed="3.65" length="1.44" shape="4176.72,8139.62 4175.28,8139.73"/>
    </edge>
    <edge id=":10730_18" function="internal">
        <lane id=":10730_18_0" index="0" speed="7.90" length="10.91" shape="4173.68,8141.38 4173.27,8141.62 4170.07,8141.98 4167.10,8140.71 4164.38,8137.80"/>
    </edge>
    <edge id=":10730_19" function="internal">
        <lane id=":10730_19_0" index="0" speed="3.65" length="3.23" shape="4175.28,8139.73 4174.47,8139.35 4174.29,8138.48 4174.74,8137.11"/>
    </edge>
    <edge id=":10730_8" function="internal">
        <lane id=":10730_8_0" index="0" speed="6.38" length="9.04" shape="4167.00,8135.97 4168.71,8137.79 4170.57,8138.59 4172.58,8138.36 4174.74,8137.11"/>
    </edge>
    <edge id=":10730_9" function="internal">
        <lane id=":10730_9_0" index="0" speed="13.89" length="16.58" shape="4167.00,8135.97 4176.05,8149.86"/>
    </edge>
    <edge id=":10730_10" function="internal">
        <lane id=":10730_10_0" index="0" speed="10.17" length="4.45" shape="4167.00,8135.97 4168.78,8139.54 4168.84,8139.99"/>
    </edge>
    <edge id=":10730_11" function="internal">
        <lane id=":10730_11_0" index="0" speed="3.65" length="1.44" shape="4167.00,8135.97 4167.03,8137.41"/>
    </edge>
    <edge id=":10730_20" function="internal">
        <lane id=":10730_20_0" index="0" speed="10.17" length="12.08" shape="4168.84,8139.99 4169.27,8143.31 4168.46,8147.29 4166.36,8151.47"/>
    </edge>
    <edge id=":10730_21" function="internal">
        <lane id=":10730_21_0" index="0" speed="3.65" length="3.23" shape="4167.03,8137.41 4166.61,8138.20 4165.72,8138.33 4164.38,8137.80"/>
    </edge>
    <edge id=":10730_12" function="internal">
        <lane id=":10730_12_0" index="0" speed="8.98" length="12.74" shape="4163.67,8149.75 4165.34,8146.46 4166.01,8143.38 4165.69,8140.49 4164.38,8137.80"/>
    </edge>
    <edge id=":10730_13" function="internal">