<configuration><input><net-file value="rand3.net.xml" /></input></configuration>