<?xml version="1.0" encoding="UTF-8"?>

<!-- generated on 2025-03-31 04:16:57 by Eclipse SUMO netgenerate Version 1.22.0
<netgenerateConfiguration xmlns:xsi="http://www.w3.org/2001/XMLSchema-instance" xsi:noNamespaceSchemaLocation="http://sumo.dlr.de/xsd/netgenerateConfiguration.xsd">

    <random_network>
        <rand value="true"/>
        <rand.iterations value="127"/>
        <rand.max-distance value="2903.79389661582"/>
        <rand.min-distance value="688.8256120356089"/>
        <rand.min-angle value="43.901704394934"/>
        <rand.neighbor-dist1 value="1.0"/>
        <rand.neighbor-dist2 value="10.0"/>
        <rand.neighbor-dist3 value="5.0"/>
        <rand.neighbor-dist4 value="5.0"/>
        <rand.neighbor-dist5 value="0.0"/>
        <rand.neighbor-dist6 value="0.0"/>
    </random_network>

    <output>
        <output-file value="configs/rand-configs/rand3.net.xml"/>
    </output>

    <tls_building>
        <tls.guess value="true"/>
        <tls.guess.threshold value="0"/>
    </tls_building>

</netgenerateConfiguration>
-->

<net version="1.20" junctionCornerDetail="5" limitTurnSpeed="5.50" xmlns:xsi="http://www.w3.org/2001/XMLSchema-instance" xsi:noNamespaceSchemaLocation="http://sumo.dlr.de/xsd/net_file.xsd">

    <location netOffset="19622.07,15207.13" convBoundary="0.00,0.00,24718.13,30671.37" origBoundary="-19622.07,-15207.13,5096.06,15464.24" projParameter="!"/>

    <edge id=":1_0" function="internal">
        <lane id=":1_0_0" index="0" speed="11.26" length="16.20" shape="19620.59,15214.53 19619.96,15211.31 19618.18,15208.17 19615.25,15205.10 19611.17,15202.11"/>
    </edge>
    <edge id=":1_1" function="internal">
        <lane id=":1_1_0" index="0" speed="13.89" length="18.84" shape="19620.59,15214.53 19620.27,15210.20 19619.57,15205.18 19618.67,15200.19 19617.74,15195.94"/>
    </edge>
    <edge id=":1_2" function="internal">
        <lane id=":1_2_0" index="0" speed="7.91" length="3.57" shape="19620.59,15214.53 19621.04,15210.99"/>
    </edge>
    <edge id=":1_3" function="internal">
        <lane id=":1_3_0" index="0" speed="3.65" length="1.44" shape="19620.59,15214.53 19621.37,15213.32"/>
    </edge>
    <edge id=":1_16" function="internal">
        <lane id=":1_16_0" index="0" speed="7.91" length="10.83" shape="19621.04,15210.99 19621.09,15210.59 19622.75,15207.82 19625.55,15206.23 19629.50,15205.81"/>
    </edge>
    <edge id=":1_17" function="internal">
        <lane id=":1_17_0" index="0" speed="3.65" length="3.23" shape="19621.37,15213.32 19622.16,15212.91 19622.97,15213.30 19623.79,15214.48"/>
    </edge>
    <edge id=":1_4" function="internal">
        <lane id=":1_4_0" index="0" speed="6.39" length="9.04" shape="19629.38,15209.01 19626.90,15209.27 19625.14,15210.27 19624.10,15212.01 19623.79,15214.48"/>
    </edge>
    <edge id=":1_5" function="internal">
        <lane id=":1_5_0" index="0" speed="13.89" length="19.61" shape="19629.38,15209.01 19625.02,15208.23 19619.99,15206.49 19615.09,15204.29 19611.17,15202.11"/>
    </edge>
    <edge id=":1_6" function="internal">
        <lane id=":1_6_0" index="0" speed="10.07" length="4.78" shape="19629.38,15209.01 19625.94,15207.70 19625.13,15206.96"/>
    </edge>
    <edge id=":1_7" function="internal">
        <lane id=":1_7_0" index="0" speed="3.65" length="1.44" shape="19629.38,15209.01 19628.21,15208.17"/>
    </edge>
    <edge id=":1_18" function="internal">
        <lane id=":1_18_0" index="0" speed="10.07" length="13.48" shape="19625.13,15206.96 19622.46,15204.54 19619.53,15200.35 19617.74,15195.94"/>
    </edge>
    <edge id=":1_19" function="internal">
        <lane id=":1_19_0" index="0" speed="3.65" length="3.23" shape="19628.21,15208.17 19627.84,15207.35 19628.27,15206.57 19629.50,15205.81"/>
    </edge>
    <edge id=":1_8" function="internal">
        <lane id=":1_8_0" index="0" speed="9.08" length="14.69" shape="19620.85,15195.19 19622.33,15199.75 19624.26,15203.04 19626.65,15205.06 19629.50,15205.81"/>
    </edge>
    <edge id=":1_9" function="internal">
        <lane id=":1_9_0" index="0" speed="13.89" length="19.54" shape="19620.85,15195.19 19621.79,15199.55 19622.73,15204.78 19623.46,15210.04 19623.79,15214.48"/>
    </edge>
    <edge id=":1_10" function="internal">
        <lane id=":1_10_0" index="0" speed="7.43" length="6.42" shape="19620.85,15195.19 19621.63,15201.40 19621.57,15201.55"/>
    </edge>
    <edge id=":1_11" function="internal">
        <lane id=":1_11_0" index="0" speed="3.65" length="1.44" shape="19620.85,15195.19 19620.35,15196.54"/>
    </edge>
    <edge id=":1_20" function="internal">
        <lane id=":1_20_0" index="0" speed="7.43" length="13.09" shape="19621.57,15201.55 19620.28,15204.62 19616.79,15204.86 19611.17,15202.11"/>
    </edge>
    <edge id=":1_21" function="internal">
        <lane id=":1_21_0" index="0" speed="3.65" length="3.23" shape="19620.35,15196.54 19619.67,15197.12 19618.80,15196.92 19617.74,15195.94"/>
    </edge>
    <edge id=":1_12" function="internal">
        <lane id=":1_12_0" index="0" speed="5.47" length="9.79" shape="19612.88,15199.41 19615.70,15200.79 19617.45,15200.67 19618.13,15199.05 19617.74,15195.94"/>
    </edge>
    <edge id=":1_13" function="internal">
        <lane id=":1_13_0" index="0" speed="13.89" length="17.96" shape="19612.88,15199.41 19616.56,15201.51 19620.90,15203.54 19625.39,15205.11 19629.50,15205.81"/>
    </edge>
    <edge id=":1_14" function="internal">
        <lane id=":1_14_0" index="0" speed="12.18" length="5.03" shape="19612.88,15199.41 19616.79,15202.59"/>
    </edge>
    <edge id=":1_15" function="internal">
        <lane id=":1_15_0" index="0" speed="3.65" length="1.44" shape="19612.88,15199.41 19613.47,15200.73"/>
    </edge>
    <edge id=":1_22" function="internal">
        <lane id=":1_22_0" index="0" speed="12.18" length="14.02" shape="19616.79,15202.59 19620.28,15206.65 19622.79,15210.86 19623.79,15214.48"/>
    </edge>
    <edge id=":1_23" function="internal">
        <lane id=":1_23_0" index="0" speed="3.65" length="3.23" shape="19613.47,15200.73 19613.38,15201.62 19612.61,15202.08 19611.17,15202.11"/>
    </edge>
    <edge id=":10_0" function="internal">
        <lane id=":10_0_0" index="0" speed="11.37" length="10.24" shape="17363.04,13128.12 17360.16,13129.04 17358.23,13129.95 17356.68,13131.37 17354.99,13133.82"/>
    </edge>
    <edge id=":10_1" function="internal">
        <lane id=":10_1_0" index="0" speed="8.03" length="3.53" shape="17363.04,13128.12 17359.55,13128.69"/>
    </edge>
    <edge id=":10_2" function="internal">
        <lane id=":10_2_0" index="0" speed="3.65" length="1.44" shape="17363.04,13128.12 17361.66,13127.71"/>
    </edge>
    <edge id=":10_9" function="internal">
        <lane id=":10_9_0" index="0" speed="8.03" length="9.55" shape="17359.55,13128.69 17356.61,13128.07 17354.22,13126.25 17352.37,13123.24"/>
    </edge>
    <edge id=":10_10" function="internal">
        <lane id=":10_10_0" index="0" speed="3.65" length="3.23" shape="17361.66,13127.71 17361.04,13127.07 17361.18,13126.18 17362.09,13125.06"/>
    </edge>
    <edge id=":10_3" function="internal">
        <lane id=":10_3_0" index="0" speed="6.53" length="8.32" shape="17355.30,13121.96 17356.48,13123.87 17358.00,13125.03 17359.87,13125.43 17362.09,13125.06"/>
    </edge>
    <edge id=":10_4" function="internal">
        <lane id=":10_4_0" index="0" speed="10.02" length="12.35" shape="17355.30,13121.96 17356.38,13125.20 17356.68,13128.26 17356.22,13131.13 17354.99,13133.82"/>
    </edge>
    <edge id=":10_5" function="internal">
        <lane id=":10_5_0" index="0" speed="3.65" length="1.44" shape="17355.30,13121.96 17355.05,13123.38"/>
    </edge>
    <edge id=":10_11" function="internal">
        <lane id=":10_11_0" index="0" speed="3.65" length="3.23" shape="17355.05,13123.38 17354.48,13124.06 17353.58,13124.02 17352.37,13123.24"/>
    </edge>
    <edge id=":10_6" function="internal">
        <lane id=":10_6_0" index="0" speed="8.74" length="9.25" shape="17352.27,13132.12 17353.16,13130.16 17353.47,13128.03 17353.20,13125.72 17352.37,13123.24"/>
    </edge>
    <edge id=":10_7" function="internal">
        <lane id=":10_7_0" index="0" speed="12.49" length="12.43" shape="17352.27,13132.12 17354.25,13129.44 17356.38,13127.56 17358.92,13126.20 17362.09,13125.06"/>
    </edge>
    <edge id=":10_8" function="internal">
        <lane id=":10_8_0" index="0" speed="3.65" length="1.44" shape="17352.27,13132.12 17353.59,13131.53"/>
    </edge>
    <edge id=":10_12" function="internal">
        <lane id=":10_12_0" index="0" speed="3.65" length="3.23" shape="17353.59,13131.53 17354.48,13131.61 17354.94,13132.37 17354.99,13133.82"/>
    </edge>
    <edge id=":1014_0" function="internal">
        <lane id=":1014_0_0" index="0" speed="12.97" length="18.92" shape="14332.09,10079.72 14330.11,10075.45 14327.28,10071.88 14323.61,10069.02 14319.09,10066.87"/>
    </edge>
    <edge id=":1014_1" function="internal">
        <lane id=":1014_1_0" index="0" speed="13.89" length="21.70" shape="14332.09,10079.72 14324.43,10059.42"/>
    </edge>
    <edge id=":1014_2" function="internal">
        <lane id=":1014_2_0" index="0" speed="7.38" length="4.49" shape="14332.09,10079.72 14331.19,10075.32"/>
    </edge>
    <edge id=":1014_3" function="internal">
        <lane id=":1014_3_0" index="0" speed="3.65" length="1.44" shape="14332.09,10079.72 14332.46,10078.33"/>
    </edge>
    <edge id=":1014_16" function="internal">
        <lane id=":1014_16_0" index="0" speed="7.38" length="13.43" shape="14331.19,10075.32 14330.97,10074.28 14332.04,10071.04 14335.29,10070.01 14340.72,10071.18"/>
    </edge>
    <edge id=":1014_17" function="internal">
        <lane id=":1014_17_0" index="0" speed="3.65" length="3.23" shape="14332.46,10078.33 14333.09,10077.69 14333.98,10077.82 14335.12,10078.70"/>
    </edge>
    <edge id=":1014_4" function="internal">
        <lane id=":1014_4_0" index="0" speed="5.55" length="9.44" shape="14339.66,10074.20 14336.81,10073.59 14335.10,10074.13 14334.53,10075.83 14335.12,10078.70"/>
    </edge>
    <edge id=":1014_5" function="internal">
        <lane id=":1014_5_0" index="0" speed="13.89" length="21.84" shape="14339.66,10074.20 14319.09,10066.87"/>
    </edge>
    <edge id=":1014_6" function="internal">
        <lane id=":1014_6_0" index="0" speed="13.89" length="5.97" shape="14339.66,10074.20 14335.37,10071.89 14334.53,10071.19"/>
    </edge>
    <edge id=":1014_7" function="internal">
        <lane id=":1014_7_0" index="0" speed="3.65" length="1.44" shape="14339.66,10074.20 14338.79,10073.05"/>
    </edge>
    <edge id=":1014_18" function="internal">
        <lane id=":1014_18_0" index="0" speed="13.89" length="15.65" shape="14334.53,10071.19 14330.92,10068.19 14327.04,10063.80 14324.43,10059.42"/>
    </edge>
    <edge id=":1014_19" function="internal">
        <lane id=":1014_19_0" index="0" speed="3.65" length="3.23" shape="14338.79,10073.05 14338.68,10072.17 14339.32,10071.54 14340.72,10071.18"/>
    </edge>
    <edge id=":1014_8" function="internal">
        <lane id=":1014_8_0" index="0" speed="13.65" length="19.18" shape="14327.39,10058.19 14329.74,10062.66 14332.75,10066.32 14336.41,10069.16 14340.72,10071.18"/>
    </edge>
    <edge id=":1014_9" function="internal">
        <lane id=":1014_9_0" index="0" speed="13.89" length="21.92" shape="14327.39,10058.19 14335.12,10078.70"/>
    </edge>
    <edge id=":1014_10" function="internal">
        <lane id=":1014_10_0" index="0" speed="7.40" length="6.10" shape="14327.39,10058.19 14329.02,10063.90 14328.98,10064.06"/>
    </edge>
    <edge id=":1014_11" function="internal">
        <lane id=":1014_11_0" index="0" speed="3.65" length="1.44" shape="14327.39,10058.19 14327.11,10059.61"/>
    </edge>
    <edge id=":1014_20" function="internal">
        <lane id=":1014_20_0" index="0" speed="7.40" length="12.68" shape="14328.98,10064.06 14328.18,10067.25 14324.87,10068.24 14319.09,10066.87"/>
    </edge>
    <edge id=":1014_21" function="internal">
        <lane id=":1014_21_0" index="0" speed="3.65" length="3.23" shape="14327.11,10059.61 14326.53,10060.28 14325.63,10060.22 14324.43,10059.42"/>
    </edge>
    <edge id=":1014_12" function="internal">
        <lane id=":1014_12_0" index="0" speed="5.49" length="9.62" shape="14320.19,10063.86 14323.14,10064.56 14324.84,10064.06 14325.27,10062.34 14324.43,10059.42"/>
    </edge>
    <edge id=":1014_13" function="internal">
        <lane id=":1014_13_0" index="0" speed="13.89" length="21.80" shape="14320.19,10063.86 14340.72,10071.18"/>
    </edge>
    <edge id=":1014_14" function="internal">
        <lane id=":1014_14_0" index="0" speed="13.81" length="6.04" shape="14320.19,10063.86 14324.65,10066.30 14325.38,10066.91"/>
    </edge>
    <edge id=":1014_15" function="internal">
        <lane id=":1014_15_0" index="0" speed="3.65" length="1.44" shape="14320.19,10063.86 14321.04,10065.02"/>
    </edge>
    <edge id=":1014_22" function="internal">
        <lane id=":1014_22_0" index="0" speed="13.81" length="15.47" shape="14325.38,10066.91 14329.10,10070.04 14332.82,10074.41 14335.12,10078.70"/>
    </edge>
    <edge id=":1014_23" function="internal">
        <lane id=":1014_23_0" index="0" speed="3.65" length="3.23" shape="14321.04,10065.02 14321.14,10065.91 14320.49,10066.53 14319.09,10066.87"/>
    </edge>
    <edge id=":1033_0" function="internal">
        <lane id=":1033_0_0" index="0" speed="6.08" length="8.89" shape="14889.87,15834.32 14887.60,15833.24 14886.39,15831.73 14886.21,15829.81 14887.07,15827.45"/>
    </edge>
    <edge id=":1033_1" function="internal">
        <lane id=":1033_1_0" index="0" speed="3.90" length="2.96" shape="14889.89,15828.98 14889.60,15829.76 14889.66,15830.40 14890.07,15830.90 14890.82,15831.26"/>
    </edge>
    <edge id=":1035_0" function="internal">
        <lane id=":1035_0_0" index="0" speed="6.09" length="7.35" shape="16099.72,17036.42 16099.45,17038.40 16098.61,17039.85 16097.22,17040.79 16095.27,17041.21"/>
    </edge>
    <edge id=":1035_1" function="internal">
        <lane id=":1035_1_0" index="0" speed="3.91" length="2.45" shape="16095.04,17038.02 16095.69,17037.88 16096.15,17037.57 16096.43,17037.08 16096.52,17036.42"/>
    </edge>
    <edge id=":1051_0" function="internal">
        <lane id=":1051_0_0" index="0" speed="7.35" length="2.74" shape="15265.03,16902.23 15264.39,16902.73 15263.91,16903.02 15263.37,16903.18 15262.57,16903.29"/>
    </edge>
    <edge id=":1051_1" function="internal">
        <lane id=":1051_1_0" index="0" speed="13.89" length="0.91" shape="15262.16,16900.12 15262.43,16900.08 15262.61,16900.03 15262.77,16899.93 15262.98,16899.76"/>
    </edge>
    <edge id=":111_0" function="internal">
        <lane id=":111_0_0" index="0" speed="6.75" length="7.60" shape="16398.84,23783.93 16398.02,23782.07 16396.81,23780.73 16395.23,23779.93 16393.26,23779.65"/>
    </edge>
    <edge id=":111_1" function="internal">
        <lane id=":111_1_0" index="0" speed="8.08" length="11.81" shape="16398.84,23783.93 16398.35,23780.83 16398.85,23778.11 16400.34,23775.78 16402.81,23773.84"/>
    </edge>
    <edge id=":111_2" function="internal">
        <lane id=":111_2_0" index="0" speed="3.65" length="1.44" shape="16398.84,23783.93 16399.27,23782.55"/>
    </edge>
    <edge id=":111_9" function="internal">
        <lane id=":111_9_0" index="0" speed="3.65" length="3.23" shape="16399.27,23782.55 16399.92,23781.94 16400.80,23782.10 16401.91,23783.02"/>
    </edge>
    <edge id=":111_3" function="internal">
        <lane id=":111_3_0" index="0" speed="6.57" length="7.51" shape="16404.43,23776.60 16402.86,23777.84 16401.92,23779.32 16401.60,23781.05 16401.91,23783.02"/>
    </edge>
    <edge id=":111_4" function="internal">
        <lane id=":111_4_0" index="0" speed="13.89" length="11.78" shape="16404.43,23776.60 16401.57,23778.15 16399.11,23779.09 16396.51,23779.54 16393.26,23779.65"/>
    </edge>
    <edge id=":111_5" function="internal">
        <lane id=":111_5_0" index="0" speed="3.65" length="1.44" shape="16404.43,23776.60 16402.99,23776.52"/>
    </edge>
    <edge id=":111_10" function="internal">
        <lane id=":111_10_0" index="0" speed="3.65" length="3.23" shape="16402.99,23776.52 16402.24,23776.03 16402.18,23775.14 16402.81,23773.84"/>
    </edge>
    <edge id=":111_6" function="internal">
        <lane id=":111_6_0" index="0" speed="13.89" length="10.09" shape="16393.28,23776.45 16396.25,23776.41 16398.30,23776.10 16400.22,23775.31 16402.81,23773.84"/>
    </edge>
    <edge id=":111_7" function="internal">
        <lane id=":111_7_0" index="0" speed="8.24" length="3.34" shape="16393.28,23776.45 16396.33,23776.88 16396.56,23777.00"/>
    </edge>
    <edge id=":111_8" function="internal">
        <lane id=":111_8_0" index="0" speed="3.65" length="1.44" shape="16393.28,23776.45 16394.47,23777.26"/>
    </edge>
    <edge id=":111_11" function="internal">
        <lane id=":111_11_0" index="0" speed="8.24" length="8.38" shape="16396.56,23777.00 16398.78,23778.11 16400.64,23780.16 16401.91,23783.02"/>
    </edge>
    <edge id=":111_12" function="internal">
        <lane id=":111_12_0" index="0" speed="3.65" length="3.23" shape="16394.47,23777.26 16394.87,23778.06 16394.47,23778.86 16393.26,23779.65"/>
    </edge>
    <edge id=":1162_0" function="internal">
        <lane id=":1162_0_0" index="0" speed="7.51" length="11.64" shape="13557.38,9789.62 13554.91,9789.28 13552.64,9790.15 13550.56,9792.22 13548.69,9795.50"/>
    </edge>
    <edge id=":1162_1" function="internal">
        <lane id=":1162_1_0" index="0" speed="13.89" length="15.77" shape="13557.38,9789.62 13553.66,9788.67 13549.67,9788.33 13545.64,9788.46 13541.78,9788.94"/>
    </edge>
    <edge id=":1162_2" function="internal">
        <lane id=":1162_2_0" index="0" speed="12.30" length="3.22" shape="13557.38,9789.62 13554.49,9788.19"/>
    </edge>
    <edge id=":1162_3" function="internal">
        <lane id=":1162_3_0" index="0" speed="3.65" length="1.33" shape="13557.38,9789.62 13556.60,9788.55"/>
    </edge>
    <edge id=":1162_16" function="internal">
        <lane id=":1162_16_0" index="0" speed="12.30" length="12.19" shape="13554.49,9788.19 13554.03,9787.96 13551.17,9785.63 13548.80,9782.61 13546.92,9778.92"/>
    </edge>
    <edge id=":1162_17" function="internal">
        <lane id=":1162_17_0" index="0" speed="3.65" length="3.35" shape="13556.60,9788.55 13556.53,9788.45 13556.43,9787.56 13557.08,9786.95 13558.48,9786.61"/>
    </edge>
    <edge id=":1162_4" function="internal">
        <lane id=":1162_4_0" index="0" speed="11.21" length="12.73" shape="13549.89,9777.72 13551.45,9780.81 13553.40,9783.32 13555.74,9785.25 13558.48,9786.61"/>
    </edge>
    <edge id=":1162_5" function="internal">
        <lane id=":1162_5_0" index="0" speed="13.70" length="18.31" shape="13549.89,9777.72 13551.03,9781.85 13551.21,9786.19 13550.43,9790.74 13548.69,9795.50"/>
    </edge>
    <edge id=":1162_6" function="internal">
        <lane id=":1162_6_0" index="0" speed="8.02" length="5.19" shape="13549.89,9777.72 13550.79,9781.90 13550.50,9782.78"/>
    </edge>
    <edge id=":1162_7" function="internal">
        <lane id=":1162_7_0" index="0" speed="3.65" length="1.44" shape="13549.89,9777.72 13549.60,9779.13"/>
    </edge>
    <edge id=":1162_18" function="internal">
        <lane id=":1162_18_0" index="0" speed="8.02" length="11.47" shape="13550.50,9782.78 13549.73,9785.16 13546.73,9787.51 13541.78,9788.94"/>
    </edge>
    <edge id=":1162_19" function="internal">
        <lane id=":1162_19_0" index="0" speed="3.65" length="3.23" shape="13549.60,9779.13 13549.01,9779.80 13548.11,9779.73 13546.92,9778.92"/>
    </edge>
    <edge id=":1162_8" function="internal">
        <lane id=":1162_8_0" index="0" speed="6.54" length="10.65" shape="13541.26,9785.78 13544.58,9784.87 13546.63,9783.42 13547.41,9781.43 13546.92,9778.92"/>
    </edge>
    <edge id=":1162_9" function="internal">
        <lane id=":1162_9_0" index="0" speed="13.89" length="17.38" shape="13541.26,9785.78 13545.37,9785.33 13549.96,9785.25 13554.50,9785.64 13558.48,9786.61"/>
    </edge>
    <edge id=":1162_10" function="internal">
        <lane id=":1162_10_0" index="0" speed="7.38" length="5.73" shape="13541.26,9785.78 13546.54,9785.60 13546.94,9785.80"/>
    </edge>
    <edge id=":1162_11" function="internal">
        <lane id=":1162_11_0" index="0" speed="3.65" length="1.44" shape="13541.26,9785.78 13542.57,9786.38"/>
    </edge>
    <edge id=":1162_20" function="internal">
        <lane id=":1162_20_0" index="0" speed="7.38" length="11.59" shape="13546.94,9785.80 13549.54,9787.15 13550.26,9790.46 13548.69,9795.50"/>
    </edge>
    <edge id=":1162_21" function="internal">
        <lane id=":1162_21_0" index="0" speed="3.65" length="3.23" shape="13542.57,9786.38 13543.10,9787.10 13542.83,9787.96 13541.78,9788.94"/>
    </edge>
    <edge id=":1162_12" function="internal">
        <lane id=":1162_12_0" index="0" speed="5.60" length="9.32" shape="13545.78,9794.17 13546.62,9791.46 13546.24,9789.68 13544.62,9788.84 13541.78,9788.94"/>
    </edge>
    <edge id=":1162_13" function="internal">
        <lane id=":1162_13_0" index="0" speed="12.71" length="15.72" shape="13545.78,9794.17 13547.31,9790.04 13548.00,9786.12 13547.88,9782.41 13546.92,9778.92"/>
    </edge>
    <edge id=":1162_14" function="internal">
        <lane id=":1162_14_0" index="0" speed="8.84" length="3.92" shape="13545.78,9794.17 13547.77,9790.80"/>
    </edge>
    <edge id=":1162_15" function="internal">
        <lane id=":1162_15_0" index="0" speed="3.65" length="1.44" shape="13545.78,9794.17 13547.01,9793.41"/>
    </edge>
    <edge id=":1162_22" function="internal">
        <lane id=":1162_22_0" index="0" speed="8.84" length="12.56" shape="13547.77,9790.80 13548.36,9789.78 13551.34,9787.06 13554.71,9786.00 13558.48,9786.61"/>
    </edge>
    <edge id=":1162_23" function="internal">
        <lane id=":1162_23_0" index="0" speed="3.65" length="3.23" shape="13547.01,9793.41 13547.90,9793.38 13548.46,9794.08 13548.69,9795.50"/>
    </edge>
    <edge id=":1164_0" function="internal">
        <lane id=":1164_0_0" index="0" speed="4.24" length="1.25" shape="13729.09,8626.06 13728.94,8625.73 13728.79,8625.51 13728.59,8625.36 13728.26,8625.21"/>
    </edge>
    <edge id=":1164_1" function="internal">
        <lane id=":1164_1_0" index="0" speed="6.73" length="3.74" shape="13729.54,8622.27 13730.53,8622.74 13731.15,8623.20 13731.60,8623.83 13732.05,8624.83"/>
    </edge>
    <edge id=":1168_0" function="internal">
        <lane id=":1168_0_0" index="0" speed="8.28" length="11.64" shape="15157.54,12534.03 15156.70,12531.72 15154.95,12529.89 15152.29,12528.53 15148.74,12527.66"/>
    </edge>
    <edge id=":1168_1" function="internal">
        <lane id=":1168_1_0" index="0" speed="13.89" length="15.31" shape="15157.54,12534.03 15156.84,12530.30 15155.92,12526.56 15154.85,12522.86 15153.68,12519.24"/>
    </edge>
    <edge id=":1168_2" function="internal">
        <lane id=":1168_2_0" index="0" speed="3.65" length="1.44" shape="15157.54,12534.03 15158.15,12532.73"/>
    </edge>
    <edge id=":1168_9" function="internal">
        <lane id=":1168_9_0" index="0" speed="3.65" length="3.23" shape="15158.15,12532.73 15158.88,12532.21 15159.73,12532.48 15160.71,12533.54"/>
    </edge>
    <edge id=":1168_3" function="internal">
        <lane id=":1168_3_0" index="0" speed="13.89" length="15.85" shape="15156.71,12518.22 15157.90,12521.92 15159.02,12525.81 15159.98,12529.73 15160.71,12533.54"/>
    </edge>
    <edge id=":1168_4" function="internal">
        <lane id=":1168_4_0" index="0" speed="7.43" length="4.92" shape="15156.71,12518.22 15157.64,12523.05"/>
    </edge>
    <edge id=":1168_5" function="internal">
        <lane id=":1168_5_0" index="0" speed="3.65" length="1.44" shape="15156.71,12518.22 15156.33,12519.61"/>
    </edge>
    <edge id=":1168_10" function="internal">
        <lane id=":1168_10_0" index="0" speed="7.43" length="11.60" shape="15157.64,12523.05 15156.62,12526.23 15153.65,12527.77 15148.74,12527.66"/>
    </edge>
    <edge id=":1168_11" function="internal">
        <lane id=":1168_11_0" index="0" speed="3.65" length="3.23" shape="15156.33,12519.61 15155.70,12520.25 15154.82,12520.13 15153.68,12519.24"/>
    </edge>
    <edge id=":1168_6" function="internal">
        <lane id=":1168_6_0" index="0" speed="5.71" length="9.20" shape="15149.24,12524.50 15151.97,12524.56 15153.63,12523.70 15154.19,12521.93 15153.68,12519.24"/>
    </edge>
    <edge id=":1168_7" function="internal">
        <lane id=":1168_7_0" index="0" speed="9.53" length="15.69" shape="15149.24,12524.50 15153.82,12525.68 15157.26,12527.58 15159.56,12530.20 15160.71,12533.54"/>
    </edge>
    <edge id=":1168_8" function="internal">
        <lane id=":1168_8_0" index="0" speed="3.65" length="1.44" shape="15149.24,12524.50 15150.30,12525.48"/>
    </edge>
    <edge id=":1168_12" function="internal">
        <lane id=":1168_12_0" index="0" speed="3.65" length="3.23" shape="15150.30,12525.48 15150.57,12526.33 15150.05,12527.06 15148.74,12527.66"/>
    </edge>
    <edge id=":1173_0" function="internal">
        <lane id=":1173_0_0" index="0" speed="5.90" length="9.11" shape="15500.34,14712.74 15498.32,14711.06 15496.44,14710.64 15494.72,14711.49 15493.16,14713.61"/>
    </edge>
    <edge id=":1173_1" function="internal">
        <lane id=":1173_1_0" index="0" speed="13.89" length="17.20" shape="15500.34,14712.74 15497.37,14709.94 15493.75,14707.25 15489.91,14704.90 15486.23,14703.10"/>
    </edge>
    <edge id=":1173_2" function="internal">
        <lane id=":1173_2_0" index="0" speed="13.89" length="3.55" shape="15500.34,14712.74 15498.27,14709.86"/>
    </edge>
    <edge id=":1173_3" function="internal">
        <lane id=":1173_3_0" index="0" speed="3.65" length="1.44" shape="15500.34,14712.74 15500.13,14711.32"/>
    </edge>
    <edge id=":1173_16" function="internal">
        <lane id=":1173_16_0" index="0" speed="13.89" length="15.00" shape="15498.27,14709.86 15497.84,14709.26 15495.57,14704.84 15493.77,14700.19 15492.73,14696.01"/>
    </edge>
    <edge id=":1173_17" function="internal">
        <lane id=":1173_17_0" index="0" speed="3.65" length="3.23" shape="15500.13,14711.32 15500.45,14710.48 15501.31,14710.24 15502.71,14710.59"/>
    </edge>
    <edge id=":1173_4" function="internal">
        <lane id=":1173_4_0" index="0" speed="13.89" length="16.72" shape="15495.90,14695.52 15496.81,14699.44 15498.33,14703.52 15500.34,14707.37 15502.71,14710.59"/>
    </edge>
    <edge id=":1173_5" function="internal">
        <lane id=":1173_5_0" index="0" speed="13.89" length="18.51" shape="15495.90,14695.52 15496.13,14699.81 15495.71,14704.77 15494.70,14709.63 15493.16,14713.61"/>
    </edge>
    <edge id=":1173_6" function="internal">
        <lane id=":1173_6_0" index="0" speed="7.39" length="6.17" shape="15495.90,14695.52 15496.01,14700.65 15495.53,14701.57"/>
    </edge>
    <edge id=":1173_7" function="internal">
        <lane id=":1173_7_0" index="0" speed="3.65" length="1.44" shape="15495.90,14695.52 15495.29,14696.83"/>
    </edge>
    <edge id=":1173_18" function="internal">
        <lane id=":1173_18_0" index="0" speed="7.39" length="10.81" shape="15495.53,14701.57 15494.44,14703.62 15491.18,14704.44 15486.23,14703.10"/>
    </edge>
    <edge id=":1173_19" function="internal">
        <lane id=":1173_19_0" index="0" speed="3.65" length="3.23" shape="15495.29,14696.83 15494.56,14697.35 15493.71,14697.07 15492.73,14696.01"/>
    </edge>
    <edge id=":1173_8" function="internal">
        <lane id=":1173_8_0" index="0" speed="5.64" length="9.27" shape="15487.46,14700.14 15490.16,14700.88 15491.94,14700.43 15492.80,14698.81 15492.73,14696.01"/>
    </edge>
    <edge id=":1173_9" function="internal">
        <lane id=":1173_9_0" index="0" speed="13.89" length="18.58" shape="15487.46,14700.14 15491.32,14702.07 15495.56,14704.70 15499.56,14707.67 15502.71,14710.59"/>
    </edge>
    <edge id=":1173_10" function="internal">
        <lane id=":1173_10_0" index="0" speed="8.43" length="5.95" shape="15487.46,14700.14 15491.79,14702.64 15492.37,14703.40"/>
    </edge>
    <edge id=":1173_11" function="internal">
        <lane id=":1173_11_0" index="0" speed="3.65" length="1.44" shape="15487.46,14700.14 15488.26,14701.34"/>
    </edge>
    <edge id=":1173_20" function="internal">
        <lane id=":1173_20_0" index="0" speed="8.43" length="11.11" shape="15492.37,14703.40 15494.18,14705.72 15494.64,14709.38 15493.16,14713.61"/>
    </edge>
    <edge id=":1173_21" function="internal">
        <lane id=":1173_21_0" index="0" speed="3.65" length="3.23" shape="15488.26,14701.34 15488.32,14702.24 15487.64,14702.82 15486.23,14703.10"/>
    </edge>
    <edge id=":1173_12" function="internal">
        <lane id=":1173_12_0" index="0" speed="7.03" length="11.53" shape="15490.34,14712.09 15491.29,14709.30 15490.92,14706.87 15489.23,14704.81 15486.23,14703.10"/>
    </edge>
    <edge id=":1173_13" function="internal">
        <lane id=":1173_13_0" index="0" speed="13.89" length="16.48" shape="15490.34,14712.09 15491.83,14708.42 15492.72,14704.25 15493.02,14699.99 15492.73,14696.01"/>
    </edge>
    <edge id=":1173_14" function="internal">
        <lane id=":1173_14_0" index="0" speed="7.53" length="2.67" shape="15490.34,14712.09 15491.93,14709.95"/>
    </edge>
    <edge id=":1173_15" function="internal">
        <lane id=":1173_15_0" index="0" speed="3.65" length="1.31" shape="15490.34,14712.09 15491.51,14711.48"/>
    </edge>
    <edge id=":1173_22" function="internal">
        <lane id=":1173_22_0" index="0" speed="7.53" length="13.01" shape="15491.93,14709.95 15493.04,14708.44 15496.00,14706.98 15499.22,14707.69 15502.71,14710.59"/>
    </edge>
    <edge id=":1173_23" function="internal">
        <lane id=":1173_23_0" index="0" speed="3.65" length="3.36" shape="15491.51,14711.48 15491.62,14711.42 15492.51,14711.44 15493.03,14712.18 15493.16,14713.61"/>
    </edge>