<?xml version="1.0" encoding="UTF-8"?>

<!-- generated on 2025-04-14 17:00:29 by Eclipse SUMO netgenerate Version 1.22.0
<netgenerateConfiguration xmlns:xsi="http://www.w3.org/2001/XMLSchema-instance" xsi:noNamespaceSchemaLocation="http://sumo.dlr.de/xsd/netgenerateConfiguration.xsd">

    <random_network>
        <rand value="true"/>
        <rand.iterations value="100"/>
        <rand.max-distance value="1407.1166610909013"/>
        <rand.min-distance value="150.0"/>
        <rand.min-angle value="90.0"/>
        <rand.neighbor-dist1 value="3.0"/>
        <rand.neighbor-dist2 value="1.0"/>
        <rand.neighbor-dist3 value="0.0"/>
        <rand.neighbor-dist4 value="5.0"/>
        <rand.neighbor-dist5 value="0.0"/>
        <rand.neighbor-dist6 value="0.0"/>
        <rand.grid value="true"/>
    </random_network>

    <output>
        <output-file value="configs/rand-configs/rand2.net.xml"/>
    </output>

    <building_defaults>
        <default.lanenumber value="2"/>
    </building_defaults>

    <tls_building>
        <tls.guess value="true"/>
        <tls.guess.threshold value="0"/>
    </tls_building>

</netgenerateConfiguration>
-->

<net version="1.20" junctionCornerDetail="5" limitTurnSpeed="5.50" xmlns:xsi="http://www.w3.org/2001/XMLSchema-instance" xsi:noNamespaceSchemaLocation="http://sumo.dlr.de/xsd/net_file.xsd">

    <location netOffset="5550.00,2250.00" convBoundary="0.00,0.00,8700.00,6750.00" origBoundary="-5550.00,-2250.00,3150.00,4500.00" projParameter="!"/>

    <edge id=":1_0" function="internal">
        <lane id=":1_0_0" index="0" speed="6.51" length="9.03" shape="5545.20,2260.40 5544.85,2257.95 5543.80,2256.20 5542.05,2255.15 5539.60,2254.80"/>
    </edge>
    <edge id=":1_1" function="internal">
        <lane id=":1_1_0" index="0" speed="13.89" length="20.80" shape="5545.20,2260.40 5545.20,2239.60"/>
        <lane id=":1_1_1" index="1" speed="13.89" length="20.80" shape="5548.40,2260.40 5548.40,2239.60"/>
    </edge>
    <edge id=":1_3" function="internal">
        <lane id=":1_3_0" index="0" speed="9.26" length="5.01" shape="5548.40,2260.40 5549.11,2255.44"/>
    </edge>
    <edge id=":1_4" function="internal">
        <lane id=":1_4_0" index="0" speed="3.65" length="1.44" shape="5548.40,2260.40 5549.20,2259.20"/>
    </edge>
    <edge id=":1_20" function="internal">
        <lane id=":1_20_0" index="0" speed="9.26" length="14.34" shape="5549.11,2255.44 5549.15,2255.15 5551.40,2251.40 5555.15,2249.15 5560.40,2248.40"/>
    </edge>
    <edge id=":1_21" function="internal">
        <lane id=":1_21_0" index="0" speed="3.65" length="3.23" shape="5549.20,2259.20 5550.00,2258.80 5550.80,2259.20 5551.60,2260.40"/>
    </edge>
    <edge id=":1_5" function="internal">
        <lane id=":1_5_0" index="0" speed="6.51" length="9.03" shape="5560.40,2254.80 5557.95,2255.15 5556.20,2256.20 5555.15,2257.95 5554.80,2260.40"/>
    </edge>
    <edge id=":1_6" function="internal">
        <lane id=":1_6_0" index="0" speed="13.89" length="20.80" shape="5560.40,2254.80 5539.60,2254.80"/>
        <lane id=":1_6_1" index="1" speed="13.89" length="20.80" shape="5560.40,2251.60 5539.60,2251.60"/>
    </edge>
    <edge id=":1_8" function="internal">
        <lane id=":1_8_0" index="0" speed="9.26" length="5.01" shape="5560.40,2251.60 5555.44,2250.89"/>
    </edge>
    <edge id=":1_9" function="internal">
        <lane id=":1_9_0" index="0" speed="3.65" length="1.44" shape="5560.40,2251.60 5559.20,2250.80"/>
    </edge>
    <edge id=":1_22" function="internal">
        <lane id=":1_22_0" index="0" speed="9.26" length="14.34" shape="5555.44,2250.89 5555.15,2250.85 5551.40,2248.60 5549.15,2244.85 5548.40,2239.60"/>
    </edge>
    <edge id=":1_23" function="internal">
        <lane id=":1_23_0" index="0" speed="3.65" length="3.23" shape="5559.20,2250.80 5558.80,2250.00 5559.20,2249.20 5560.40,2248.40"/>
    </edge>
    <edge id=":1_10" function="internal">
        <lane id=":1_10_0" index="0" speed="6.51" length="9.03" shape="5554.80,2239.60 5555.15,2242.05 5556.20,2243.80 5557.95,2244.85 5560.40,2245.20"/>
    </edge>
    <edge id=":1_11" function="internal">
        <lane id=":1_11_0" index="0" speed="13.89" length="20.80" shape="5554.80,2239.60 5554.80,2260.40"/>
        <lane id=":1_11_1" index="1" speed="13.89" length="20.80" shape="5551.60,2239.60 5551.60,2260.40"/>
    </edge>
    <edge id=":1_13" function="internal">
        <lane id=":1_13_0" index="0" speed="9.26" length="5.01" shape="5551.60,2239.60 5550.89,2244.56"/>
    </edge>
    <edge id=":1_14" function="internal">
        <lane id=":1_14_0" index="0" speed="3.65" length="1.44" shape="5551.60,2239.60 5550.80,2240.80"/>
    </edge>
    <edge id=":1_24" function="internal">
        <lane id=":1_24_0" index="0" speed="9.26" length="14.34" shape="5550.89,2244.56 5550.85,2244.85 5548.60,2248.60 5544.85,2250.85 5539.60,2251.60"/>
    </edge>
    <edge id=":1_25" function="internal">
        <lane id=":1_25_0" index="0" speed="3.65" length="3.23" shape="5550.80,2240.80 5550.00,2241.20 5549.20,2240.80 5548.40,2239.60"/>
    </edge>
    <edge id=":1_15" function="internal">
        <lane id=":1_15_0" index="0" speed="6.51" length="9.03" shape="5539.60,2245.20 5542.05,2244.85 5543.80,2243.80 5544.85,2242.05 5545.20,2239.60"/>
    </edge>
    <edge id=":1_16" function="internal">
        <lane id=":1_16_0" index="0" speed="13.89" length="20.80" shape="5539.60,2245.20 5560.40,2245.20"/>
        <lane id=":1_16_1" index="1" speed="13.89" length="20.80" shape="5539.60,2248.40 5560.40,2248.40"/>
    </edge>
    <edge id=":1_18" function="internal">
        <lane id=":1_18_0" index="0" speed="9.26" length="5.01" shape="5539.60,2248.40 5544.56,2249.11"/>
    </edge>
    <edge id=":1_19" function="internal">
        <lane id=":1_19_0" index="0" speed="3.65" length="1.44" shape="5539.60,2248.40 5540.80,2249.20"/>
    </edge>
    <edge id=":1_26" function="internal">
        <lane id=":1_26_0" index="0" speed="9.26" length="14.34" shape="5544.56,2249.11 5544.85,2249.15 5548.60,2251.40 5550.85,2255.15 5551.60,2260.40"/>
    </edge>
    <edge id=":1_27" function="internal">
        <lane id=":1_27_0" index="0" speed="3.65" length="3.23" shape="5540.80,2249.20 5541.20,2250.00 5540.80,2250.80 5539.60,2251.60"/>
    </edge>
    <edge id=":10_0" function="internal">
        <lane id=":10_0_0" index="0" speed="13.89" length="20.80" shape="5395.20,2260.40 5395.20,2239.60"/>
        <lane id=":10_0_1" index="1" speed="13.89" length="20.80" shape="5398.40,2260.40 5398.40,2239.60"/>
    </edge>
    <edge id=":10_2" function="internal">
        <lane id=":10_2_0" index="0" speed="9.26" length="5.01" shape="5398.40,2260.40 5399.11,2255.44"/>
    </edge>
    <edge id=":10_3" function="internal">
        <lane id=":10_3_0" index="0" speed="3.65" length="1.44" shape="5398.40,2260.40 5399.20,2259.20"/>
    </edge>
    <edge id=":10_12" function="internal">
        <lane id=":10_12_0" index="0" speed="9.26" length="14.34" shape="5399.11,2255.44 5399.15,2255.15 5401.40,2251.40 5405.15,2249.15 5410.40,2248.40"/>
    </edge>
    <edge id=":10_13" function="internal">
        <lane id=":10_13_0" index="0" speed="3.65" length="3.23" shape="5399.20,2259.20 5400.00,2258.80 5400.80,2259.20 5401.60,2260.40"/>
    </edge>
    <edge id=":10_4" function="internal">
        <lane id=":10_4_0" index="0" speed="6.51" length="9.03" shape="5410.40,2254.80 5407.95,2255.15 5406.20,2256.20 5405.15,2257.95 5404.80,2260.40"/>
        <lane id=":10_4_1" index="1" speed="8.00" length="14.19" shape="5410.40,2251.60 5406.55,2252.15 5403.80,2253.80 5402.15,2256.55 5401.60,2260.40"/>
    </edge>
    <edge id=":10_6" function="internal">
        <lane id=":10_6_0" index="0" speed="9.26" length="19.35" shape="5410.40,2251.60 5405.15,2250.85 5401.40,2248.60 5399.15,2244.85 5398.40,2239.60"/>
    </edge>
    <edge id=":10_7" function="internal">
        <lane id=":10_7_0" index="0" speed="3.65" length="2.34" shape="5410.40,2251.60 5409.20,2250.80 5408.80,2250.00"/>
    </edge>
    <edge id=":10_14" function="internal">
        <lane id=":10_14_0" index="0" speed="3.65" length="2.34" shape="5408.80,2250.00 5409.20,2249.20 5410.40,2248.40"/>
    </edge>
    <edge id=":10_8" function="internal">
        <lane id=":10_8_0" index="0" speed="6.51" length="9.03" shape="5404.80,2239.60 5405.15,2242.05 5406.20,2243.80 5407.95,2244.85 5410.40,2245.20"/>
    </edge>
    <edge id=":10_9" function="internal">
        <lane id=":10_9_0" index="0" speed="13.89" length="20.80" shape="5404.80,2239.60 5404.80,2260.40"/>
        <lane id=":10_9_1" index="1" speed="13.89" length="20.80" shape="5401.60,2239.60 5401.60,2260.40"/>
    </edge>
    <edge id=":10_11" function="internal">
        <lane id=":10_11_0" index="0" speed="3.65" length="1.44" shape="5401.60,2239.60 5400.80,2240.80"/>
    </edge>
    <edge id=":10_15" function="internal">
        <lane id=":10_15_0" index="0" speed="3.65" length="3.23" shape="5400.80,2240.80 5400.00,2241.20 5399.20,2240.80 5398.40,2239.60"/>
    </edge>
    <edge id=":1015_0" function="internal">
        <lane id=":1015_0_0" index="0" speed="8.96" length="18.06" shape="2554.80,4943.60 2554.10,4948.50 2552.00,4952.00 2548.50,4954.10 2543.60,4954.80"/>
        <lane id=":1015_0_1" index="1" speed="7.66" length="12.90" shape="2551.60,4943.60 2551.10,4947.10 2549.60,4949.60 2547.10,4951.10 2543.60,4951.60"/>
    </edge>
    <edge id=":1015_2" function="internal">
        <lane id=":1015_2_0" index="0" speed="3.90" length="2.58" shape="2543.60,4945.20 2544.30,4945.10 2544.80,4944.80 2545.10,4944.30 2545.20,4943.60"/>
        <lane id=":1015_2_1" index="1" speed="6.08" length="7.74" shape="2543.60,4948.40 2545.70,4948.10 2547.20,4947.20 2548.10,4945.70 2548.40,4943.60"/>
    </edge>
    <edge id=":1018_0" function="internal">
        <lane id=":1018_0_0" index="0" speed="8.96" length="18.06" shape="3754.80,1643.60 3754.10,1648.50 3752.00,1652.00 3748.50,1654.10 3743.60,1654.80"/>
        <lane id=":1018_0_1" index="1" speed="7.66" length="12.90" shape="3751.60,1643.60 3751.10,1647.10 3749.60,1649.60 3747.10,1651.10 3743.60,1651.60"/>
    </edge>
    <edge id=":1018_2" function="internal">
        <lane id=":1018_2_0" index="0" speed="3.90" length="2.58" shape="3743.60,1645.20 3744.30,1645.10 3744.80,1644.80 3745.10,1644.30 3745.20,1643.60"/>
        <lane id=":1018_2_1" index="1" speed="6.08" length="7.74" shape="3743.60,1648.40 3745.70,1648.10 3747.20,1647.20 3748.10,1645.70 3748.40,1643.60"/>
    </edge>
    <edge id=":1029_0" function="internal">
        <lane id=":1029_0_0" index="0" speed="13.89" length="0.10" shape="6750.00,2554.80 6750.00,2554.80"/>
        <lane id=":1029_0_1" index="1" speed="13.89" length="0.10" shape="6750.00,2551.60 6750.00,2551.60"/>
    </edge>
    <edge id=":1029_2" function="internal">
        <lane id=":1029_2_0" index="0" speed="13.89" length="0.10" shape="6750.00,2545.20 6750.00,2545.20"/>
        <lane id=":1029_2_1" index="1" speed="13.89" length="0.10" shape="6750.00,2548.40 6750.00,2548.40"/>
    </edge>
    <edge id=":1050_0" function="internal">
        <lane id=":1050_0_0" index="0" speed="6.51" length="9.03" shape="2245.20,4960.40 2244.85,4957.95 2243.80,4956.20 2242.05,4955.15 2239.60,4954.80"/>
    </edge>
    <edge id=":1050_1" function="internal">
        <lane id=":1050_1_0" index="0" speed="13.89" length="20.80" shape="2245.20,4960.40 2245.20,4939.60"/>
        <lane id=":1050_1_1" index="1" speed="13.89" length="20.80" shape="2248.40,4960.40 2248.40,4939.60"/>
    </edge>
    <edge id=":1050_3" function="internal">
        <lane id=":1050_3_0" index="0" speed="9.26" length="5.01" shape="2248.40,4960.40 2249.11,4955.44"/>
    </edge>
    <edge id=":1050_4" function="internal">
        <lane id=":1050_4_0" index="0" speed="3.65" length="1.44" shape="2248.40,4960.40 2249.20,4959.20"/>
    </edge>
    <edge id=":1050_20" function="internal">
        <lane id=":1050_20_0" index="0" speed="9.26" length="14.34" shape="2249.11,4955.44 2249.15,4955.15 2251.40,4951.40 2255.15,4949.15 2260.40,4948.40"/>
    </edge>
    <edge id=":1050_21" function="internal">
        <lane id=":1050_21_0" index="0" speed="3.65" length="3.23" shape="2249.20,4959.20 2250.00,4958.80 2250.80,4959.20 2251.60,4960.40"/>
    </edge>
    <edge id=":1050_5" function="internal">
        <lane id=":1050_5_0" index="0" speed="6.51" length="9.03" shape="2260.40,4954.80 2257.95,4955.15 2256.20,4956.20 2255.15,4957.95 2254.80,4960.40"/>
    </edge>
    <edge id=":1050_6" function="internal">
        <lane id=":1050_6_0" index="0" speed="13.89" length="20.80" shape="2260.40,4954.80 2239.60,4954.80"/>
        <lane id=":1050_6_1" index="1" speed="13.89" length="20.80" shape="2260.40,4951.60 2239.60,4951.60"/>
    </edge>
    <edge id=":1050_8" function="internal">
        <lane id=":1050_8_0" index="0" speed="9.26" length="5.01" shape="2260.40,4951.60 2255.44,4950.89"/>
    </edge>
    <edge id=":1050_9" function="internal">
        <lane id=":1050_9_0" index="0" speed="3.65" length="1.44" shape="2260.40,4951.60 2259.20,4950.80"/>
    </edge>
    <edge id=":1050_22" function="internal">
        <lane id=":1050_22_0" index="0" speed="9.26" length="14.34" shape="2255.44,4950.89 2255.15,4950.85 2251.40,4948.60 2249.15,4944.85 2248.40,4939.60"/>
    </edge>
    <edge id=":1050_23" function="internal">
        <lane id=":1050_23_0" index="0" speed="3.65" length="3.23" shape="2259.20,4950.80 2258.80,4950.00 2259.20,4949.20 2260.40,4948.40"/>
    </edge>
    <edge id=":1050_10" function="internal">
        <lane id=":1050_10_0" index="0" speed="6.51" length="9.03" shape="2254.80,4939.60 2255.15,4942.05 2256.20,4943.80 2257.95,4944.85 2260.40,4945.20"/>
    </edge>
    <edge id=":1050_11" function="internal">
        <lane id=":1050_11_0" index="0" speed="13.89" length="20.80" shape="2254.80,4939.60 2254.80,4960.40"/>
        <lane id=":1050_11_1" index="1" speed="13.89" length="20.80" shape="2251.60,4939.60 2251.60,4960.40"/>
    </edge>
    <edge id=":1050_13" function="internal">
        <lane id=":1050_13_0" index="0" speed="9.26" length="5.01" shape="2251.60,4939.60 2250.89,4944.56"/>
    </edge>
    <edge id=":1050_14" function="internal">
        <lane id=":1050_14_0" index="0" speed="3.65" length="1.44" shape="2251.60,4939.60 2250.80,4940.80"/>
    </edge>
    <edge id=":1050_24" function="internal">
        <lane id=":1050_24_0" index="0" speed="9.26" length="14.34" shape="2250.89,4944.56 2250.85,4944.85 2248.60,4948.60 2244.85,4950.85 2239.60,4951.60"/>
    </edge>
    <edge id=":1050_25" function="internal">
        <lane id=":1050_25_0" index="0" speed="3.65" length="3.23" shape="2250.80,4940.80 2250.00,4941.20 2249.20,4940.80 2248.40,4939.60"/>
    </edge>
    <edge id=":1050_15" function="internal">
        <lane id=":1050_15_0" index="0" speed="6.51" length="9.03" shape="2239.60,4945.20 2242.05,4944.85 2243.80,4943.80 2244.85,4942.05 2245.20,4939.60"/>
    </edge>
    <edge id=":1050_16" function="internal">
        <lane id=":1050_16_0" index="0" speed="13.89" length="20.80" shape="2239.60,4945.20 2260.40,4945.20"/>
        <lane id=":1050_16_1" index="1" speed="13.89" length="20.80" shape="2239.60,4948.40 2260.40,4948.40"/>
    </edge>
    <edge id=":1050_18" function="internal">
        <lane id=":1050_18_0" index="0" speed="9.26" length="5.01" shape="2239.60,4948.40 2244.56,4949.11"/>
    </edge>
    <edge id=":1050_19" function="internal">
        <lane id=":1050_19_0" index="0" speed="3.65" length="1.44" shape="2239.60,4948.40 2240.80,4949.20"/>
    </edge>
    <edge id=":1050_26" function="internal">
        <lane id=":1050_26_0" index="0" speed="9.26" length="14.34" shape="2244.56,4949.11 2244.85,4949.15 2248.60,4951.40 2250.85,4955.15 2251.60,4960.40"/>
    </edge>
    <edge id=":1050_27" function="internal">
        <lane id=":1050_27_0" index="0" speed="3.65" length="3.23" shape="2240.80,4949.20 2241.20,4950.00 2240.80,4950.80 2239.60,4951.60"/>
    </edge>
    <edge id=":1053_0" function="internal">
        <lane id=":1053_0_0" index="0" speed="6.51" length="9.03" shape="3445.20,1660.40 3444.85,1657.95 3443.80,1656.20 3442.05,1655.15 3439.60,1654.80"/>
    </edge>
    <edge id=":1053_1" function="internal">
        <lane id=":1053_1_0" index="0" speed="13.89" length="20.80" shape="3445.20,1660.40 3445.20,1639.60"/>
        <lane id=":1053_1_1" index="1" speed="13.89" length="20.80" shape="3448.40,1660.40 3448.40,1639.60"/>
    </edge>
    <edge id=":1053_3" function="internal">
        <lane id=":1053_3_0" index="0" speed="9.26" length="5.01" shape="3448.40,1660.40 3449.11,1655.44"/>
    </edge>
    <edge id=":1053_4" function="internal">
        <lane id=":1053_4_0" index="0" speed="3.65" length="1.44" shape="3448.40,1660.40 3449.20,1659.20"/>
    </edge>
    <edge id=":1053_20" function="internal">
        <lane id=":1053_20_0" index="0" speed="9.26" length="14.34" shape="3449.11,1655.44 3449.15,1655.15 3451.40,1651.40 3455.15,1649.15 3460.40,1648.40"/>
    </edge>
    <edge id=":1053_21" function="internal">
        <lane id=":1053_21_0" index="0" speed="3.65" length="3.23" shape="3449.20,1659.20 3450.00,1658.80 3450.80,1659.20 3451.60,1660.40"/>
    </edge>
    <edge id=":1053_5" function="internal">
        <lane id=":1053_5_0" index="0" speed="6.51" length="9.03" shape="3460.40,1654.80 3457.95,1655.15 3456.20,1656.20 3455.15,1657.95 3454.80,1660.40"/>
    </edge>
    <edge id=":1053_6" function="internal">
        <lane id=":1053_6_0" index="0" speed="13.89" length="20.80" shape="3460.40,1654.80 3439.60,1654.80"/>
        <lane id=":1053_6_1" index="1" speed="13.89" length="20.80" shape="3460.40,1651.60 3439.60,1651.60"/>
    </edge>
    <edge id=":1053_8" function="internal">
        <lane id=":1053_8_0" index="0" speed="9.26" length="5.01" shape="3460.40,1651.60 3455.44,1650.89"/>
    </edge>
    <edge id=":1053_9" function="internal">
        <lane id=":1053_9_0" index="0" speed="3.65" length="1.44" shape="3460.40,1651.60 3459.20,1650.80"/>
    </edge>
    <edge id=":1053_22" function="internal">
        <lane id=":1053_22_0" index="0" speed="9.26" length="14.34" shape="3455.44,1650.89 3455.15,1650.85 3451.40,1648.60 3449.15,1644.85 3448.40,1639.60"/>
    </edge>
    <edge id=":1053_23" function="internal">
        <lane id=":1053_23_0" index="0" speed="3.65" length="3.23" shape="3459.20,1650.80 3458.80,1650.00 3459.20,1649.20 3460.40,1648.40"/>
    </edge>
    <edge id=":1053_10" function="internal">
        <lane id=":1053_10_0" index="0" speed="6.51" length="9.03" shape="3454.80,1639.60 3455.15,1642.05 3456.20,1643.80 3457.95,1644.85 3460.40,1645.20"/>
    </edge>
    <edge id=":1053_11" function="internal">
        <lane id=":1053_11_0" index="0" speed="13.89" length="20.80" shape="3454.80,1639.60 3454.80,1660.40"/>
        <lane id=":1053_11_1" index="1" speed="13.89" length="20.80" shape="3451.60,1639.60 3451.60,1660.40"/>
    </edge>
    <edge id=":1053_13" function="internal">
        <lane id=":1053_13_0" index="0" speed="9.26" length="5.01" shape="3451.60,1639.60 3450.89,1644.56"/>
    </edge>
    <edge id=":1053_14" function="internal">
        <lane id=":1053_14_0" index="0" speed="3.65" length="1.44" shape="3451.60,1639.60 3450.80,1640.80"/>
    </edge>
    <edge id=":1053_24" function="internal">
        <lane id=":1053_24_0" index="0" speed="9.26" length="14.34" shape="3450.89,1644.56 3450.85,1644.85 3448.60,1648.60 3444.85,1650.85 3439.60,1651.60"/>
    </edge>
    <edge id=":1053_25" function="internal">
        <lane id=":1053_25_0" index="0" speed="3.65" length="3.23" shape="3450.80,1640.80 3450.00,1641.20 3449.20,1640.80 3448.40,1639.60"/>
    </edge>
    <edge id=":1053_15" function="internal">
        <lane id=":1053_15_0" index="0" speed="6.51" length="9.03" shape="3439.60,1645.20 3442.05,1644.85 3443.80,1643.80 3444.85,1642.05 3445.20,1639.60"/>
    </edge>
    <edge id=":1053_16" function="internal">
        <lane id=":1053_16_0" index="0" speed="13.89" length="20.80" shape="3439.60,1645.20 3460.40,1645.20"/>
        <lane id=":1053_16_1" index="1" speed="13.89" length="20.80" shape="3439.60,1648.40 3460.40,1648.40"/>
    </edge>
    <edge id=":1053_18" function="internal">
        <lane id=":1053_18_0" index="0" speed="9.26" length="5.01" shape="3439.60,1648.40 3444.56,1649.11"/>
    </edge>
    <edge id=":1053_19" function="internal">
        <lane id=":1053_19_0" index="0" speed="3.65" length="1.44" shape="3439.60,1648.40 3440.80,1649.20"/>
    </edge>
    <edge id=":1053_26" function="internal">
        <lane id=":1053_26_0" index="0" speed="9.26" length="14.34" shape="3444.56,1649.11 3444.85,1649.15 3448.60,1651.40 3450.85,1655.15 3451.60,1660.40"/>
    </edge>
    <edge id=":1053_27" function="internal">
        <lane id=":1053_27_0" index="0" speed="3.65" length="3.23" shape="3440.80,1649.20 3441.20,1650.00 3440.80,1650.80 3439.60,1651.60"/>
    </edge>
    <edge id=":1072_0" function="internal">
        <lane id=":1072_0_0" index="0" speed="13.89" length="0.10" shape="1200.00,4954.80 1200.00,4954.80"/>
        <lane id=":1072_0_1" index="1" speed="13.89" length="0.10" shape="1200.00,4951.60 1200.00,4951.60"/>
    </edge>
    <edge id=":1072_2" function="internal">
        <lane id=":1072_2_0" index="0" speed="13.89" length="0.10" shape="1200.00,4945.20 1200.00,4945.20"/>
        <lane id=":1072_2_1" index="1" speed="13.89" length="0.10" shape="1200.00,4948.40 1200.00,4948.40"/>
    </edge>
    <edge id=":1080_0" function="internal">
        <lane id=":1080_0_0" index="0" speed="13.89" length="0.10" shape="2245.20,4050.00 2245.20,4050.00"/>
        <lane id=":1080_0_1" index="1" speed="13.89" length="0.10" shape="2248.40,4050.00 2248.40,4050.00"/>
    </edge>
    <edge id=":1080_2" function="internal">
        <lane id=":1080_2_0" index="0" speed="13.89" length="0.10" shape="2254.80,4050.00 2254.80,4050.00"/>
        <lane id=":1080_2_1" index="1" speed="13.89" length="0.10" shape="2251.60,4050.00 2251.60,4050.00"/>
    </edge>
    <edge id=":1084_0" function="internal">
        <lane id=":1084_0_0" index="0" speed="6.51" length="9.03" shape="2245.20,5110.40 2244.85,5107.95 2243.80,5106.20 2242.05,5105.15 2239.60,5104.80"/>
    </edge>
    <edge id=":1084_1" function="internal">
        <lane id=":1084_1_0" index="0" speed="13.89" length="20.80" shape="2245.20,5110.40 2245.20,5089.60"/>
        <lane id=":1084_1_1" index="1" speed="13.89" length="20.80" shape="2248.40,5110.40 2248.40,5089.60"/>
    </edge>
    <edge id=":1084_3" function="internal">
        <lane id=":1084_3_0" index="0" speed="9.26" length="5.01" shape="2248.40,5110.40 2249.11,5105.44"/>
    </edge>
    <edge id=":1084_4" function="internal">
        <lane id=":1084_4_0" index="0" speed="3.65" length="1.44" shape="2248.40,5110.40 2249.20,5109.20"/>
    </edge>
    <edge id=":1084_20" function="internal">
        <lane id=":1084_20_0" index="0" speed="9.26" length="14.34" shape="2249.11,5105.44 2249.15,5105.15 2251.40,5101.40 2255.15,5099.15 2260.40,5098.40"/>
    </edge>
    <edge id=":1084_21" function="internal">
        <lane id=":1084_21_0" index="0" speed="3.65" length="3.23" shape="2249.20,5109.20 2250.00,5108.80 2250.80,5109.20 2251.60,5110.40"/>
    </edge>
    <edge id=":1084_5" function="internal">
        <lane id=":1084_5_0" index="0" speed="6.51" length="9.03" shape="2260.40,5104.80 2257.95,5105.15 2256.20,5106.20 2255.15,5107.95 2254.80,5110.40"/>
    </edge>
    <edge id=":1084_6" function="internal">
        <lane id=":1084_6_0" index="0" speed="13.89" length="20.80" shape="2260.40,5104.80 2239.60,5104.80"/>
        <lane id=":1084_6_1" index="1" speed="13.89" length="20.80" shape="2260.40,5101.60 2239.60,5101.60"/>
    </edge>
    <edge id=":1084_8" function="internal">
        <lane id=":1084_8_0" index="0" speed="9.26" length="5.01" shape="2260.40,5101.60 2255.44,5100.89"/>
    </edge>
    <edge id=":1084_9" function="internal">
        <lane id=":1084_9_0" index="0" speed="3.65" length="1.44" shape="2260.40,5101.60 2259.20,5100.80"/>
    </edge>
    <edge id=":1084_22" function="internal">
        <lane id=":1084_22_0" index="0" speed="9.26" length="14.34" shape="2255.44,5100.89 2255.15,5100.85 2251.40,5098.60 2249.15,5094.85 2248.40,5089.60"/>
    </edge>
    <edge id=":1084_23" function="internal">
        <lane id=":1084_23_0" index="0" speed="3.65" length="3.23" shape="2259.20,5100.80 2258.80,5100.00 2259.20,5099.20 2260.40,5098.40"/>
    </edge>
    <edge id=":1084_10" function="internal">
        <lane id=":1084_10_0" index="0" speed="6.51" length="9.03" shape="2254.80,5089.60 2255.15,5092.05 2256.20,5093.80 2257.95,5094.85 2260.40,5095.20"/>
    </edge>
    <edge id=":1084_11" function="internal">
        <lane id=":1084_11_0" index="0" speed="13.89" length="20.80" shape="2254.80,5089.60 2254.80,5110.40"/>
        <lane id=":1084_11_1" index="1" speed="13.89" length="20.80" shape="2251.60,5089.60 2251.60,5110.40"/>
    </edge>
    <edge id=":1084_13" function="internal">
        <lane id=":1084_13_0" index="0" speed="9.26" length="5.01" shape="2251.60,5089.60 2250.89,5094.56"/>
    </edge>
    <edge id=":1084_14" function="internal">
        <lane id=":1084_14_0" index="0" speed="3.65" length="1.44" shape="2251.60,5089.60 2250.80,5090.80"/>
    </edge>
    <edge id=":1084_24" function="internal">
        <lane id=":1084_24_0" index="0" speed="9.26" length="14.34" shape="2250.89,5094.56 2250.85,5094.85 2248.60,5098.60 2244.85,5100.85 2239.60,5101.60"/>
    </edge>
    <edge id=":1084_25" function="internal">
        <lane id=":1084_25_0" index="0" speed="3.65" length="3.23" shape="2250.80,5090.80 2250.00,5091.20 2249.20,5090.80 2248.40,5089.60"/>
    </edge>
    <edge id=":1084_15" function="internal">
        <lane id=":1084_15_0" index="0" speed="6.51" length="9.03" shape="2239.60,5095.20 2242.05,5094.85 2243.80,5093.80 2244.85,5092.05 2245.20,5089.60"/>
    </edge>
    <edge id=":1084_16" function="internal">
        <lane id=":1084_16_0" index="0" speed="13.89" length="20.80" shape="2239.60,5095.20 2260.40,5095.20"/>
        <lane id=":1084_16_1" index="1" speed="13.89" length="20.80" shape="2239.60,5098.40 2260.40,5098.40"/>
    </edge>
    <edge id=":1084_18" function="internal">
        <lane id=":1084_18_0" index="0" speed="9.26" length="5.01" shape="2239.60,5098.40 2244.56,5099.11"/>
    </edge>
    <edge id=":1084_19" function="internal">
        <lane id=":1084_19_0" index="0" speed="3.65" length="1.44" shape="2239.60,5098.40 2240.80,5099.20"/>
    </edge>
    <edge id=":1084_26" function="internal">
        <lane id=":1084_26_0" index="0" speed="9.26" length="14.34" shape="2244.56,5099.11 2244.85,5099.15 2248.60,5101.40 2250.85,5105.15 2251.60,5110.40"/>
    </edge>
    <edge id=":1084_27" function="internal">
        <lane id=":1084_27_0" index="0" speed="3.65" length="3.23" shape="2240.80,5099.20 2241.20,5100.00 2240.80,5100.80 2239.60,5101.60"/>
    </edge>
    <edge id=":1091_0" function="internal">
        <lane id=":1091_0_0" index="0" speed="3.65" length="4.67" shape="2100.00,1651.60 2098.80,1650.80 2098.40,1650.00 2098.80,1649.20 2100.00,1648.40"/>
    </edge>
    <edge id=":1097_0" function="internal">
        <lane id=":1097_0_0" index="0" speed="13.89" length="20.80" shape="3445.20,2560.40 3445.20,2539.60"/>
        <lane id=":1097_0_1" index="1" speed="13.89" length="20.80" shape="3448.40,2560.40 3448.40,2539.60"/>
    </edge>
    <edge id=":1097_2" function="internal">
        <lane id=":1097_2_0" index="0" speed="9.26" length="5.01" shape="3448.40,2560.40 3449.11,2555.44"/>
    </edge>
    <edge id=":1097_3" function="internal">
        <lane id=":1097_3_0" index="0" speed="3.65" length="1.44" shape="3448.40,2560.40 3449.20,2559.20"/>
    </edge>
    <edge id=":1097_12" function="internal">
        <lane id=":1097_12_0" index="0" speed="9.26" length="14.34" shape="3449.11,2555.44 3449.15,2555.15 3451.40,2551.40 3455.15,2549.15 3460.40,2548.40"/>
    </edge>
    <edge id=":1097_13" function="internal">
        <lane id=":1097_13_0" index="0" speed="3.65" length="3.23" shape="3449.20,2559.20 3450.00,2558.80 3450.80,2559.20 3451.60,2560.40"/>
    </edge>
    <edge id=":1097_4" function="internal">
        <lane id=":1097_4_0" index="0" speed="6.51" length="9.03" shape="3460.40,2554.80 3457.95,2555.15 3456.20,2556.20 3455.15,2557.95 3454.80,2560.40"/>
        <lane id=":1097_4_1" index="1" speed="8.00" length="14.19" shape="3460.40,2551.60 3456.55,2552.15 3453.80,2553.80 3452.15,2556.55 3451.60,2560.40"/>
    </edge>
    <edge id=":1097_6" function="internal">
        <lane id=":1097_6_0" index="0" speed="9.26" length="19.35" shape="3460.40,2551.60 3455.15,2550.85 3451.40,2548.60 3449.15,2544.85 3448.40,2539.60"/>
    </edge>
    <edge id=":1097_7" function="internal">
        <lane id=":1097_7_0" index="0" speed="3.65" length="2.34" shape="3460.40,2551.60 3459.20,2550.80 3458.80,2550.00"/>
    </edge>
    <edge id=":1097_14" function="internal">
        <lane id=":1097_14_0" index="0" speed="3.65" length="2.34" shape="3458.80,2550.00 3459.20,2549.20 3460.40,2548.40"/>
    </edge>
    <edge id=":1097_8" function="internal">
        <lane id=":1097_8_0" index="0" speed="6.51" length="9.03" shape="3454.80,2539.60 3455.15,2542.05 3456.20,2543.80 3457.95,2544.85 3460.40,2545.20"/>
    </edge>
    <edge id=":1097_9" function="internal">
        <lane id=":1097_9_0" index="0" speed="13.89" length="20.80" shape="3454.80,2539.60 3454.80,2560.40"/>
        <lane id=":1097_9_1" index="1" speed="13.89" length="20.80" shape="3451.60,2539.60 3451.60,2560.40"/>
    </edge>
    <edge id=":1097_11" function="internal">
        <lane id=":1097_11_0" index="0" speed="3.65" length="1.44" shape="3451.60,2539.60 3450.80,2540.80"/>
    </edge>
    <edge id=":1097_15" function="internal">
        <lane id=":1097_15_0" index="0" speed="3.65" length="3.23" shape="3450.80,2540.80 3450.00,2541.20 3449.20,2540.80 3448.40,2539.60"/>
    </edge>