<?xml version="1.0" encoding="UTF-8"?>

<!-- generated on 2025-04-14 17:00:29 by Eclipse SUMO netgenerate Version 1.22.0
<netgenerateConfiguration xmlns:xsi="http://www.w3.org/2001/XMLSchema-instance" xsi:noNamespaceSchemaLocation="http://sumo.dlr.de/xsd/netgenerateConfiguration.xsd">

    <random_network>
        <rand value="true"/>
        <rand.iterations value="101"/>
        <rand.max-distance value="1076.0425143165435"/>
        <rand.min-distance value="150.0"/>
        <rand.min-angle value="90.0"/>
        <rand.neighbor-dist1 value="3.0"/>
        <rand.neighbor-dist2 value="1.0"/>
        <rand.neighbor-dist3 value="0.0"/>
        <rand.neighbor-dist4 value="5.0"/>
        <rand.neighbor-dist5 value="0.0"/>
        <rand.neighbor-dist6 value="0.0"/>
        <rand.grid value="true"/>
    </random_network>

    <output>
        <output-file value="configs/rand-configs/rand4.net.xml"/>
    </output>

    <building_defaults>
        <default.lanenumber value="2"/>
    </building_defaults>

    <tls_building>
        <tls.guess value="true"/>
        <tls.guess.threshold value="0"/>
    </tls_building>

</netgenerateConfiguration>
-->

<net version="1.20" junctionCornerDetail="5" limitTurnSpeed="5.50" xmlns:xsi="http://www.w3.org/2001/XMLSchema-instance" xsi:noNamespaceSchemaLocation="http://sumo.dlr.de/xsd/net_file.xsd">

    <location netOffset="4350.00,4050.00" convBoundary="0.00,0.00,9600.00,7350.00" origBoundary="-4350.00,-4050.00,5250.00,3300.00" projParameter="!"/>

    <edge id=":1_0" function="internal">
        <lane id=":1_0_0" index="0" speed="6.51" length="9.03" shape="4345.20,4060.40 4344.85,4057.95 4343.80,4056.20 4342.05,4055.15 4339.60,4054.80"/>
    </edge>
    <edge id=":1_1" function="internal">
        <lane id=":1_1_0" index="0" speed="13.89" length="20.80" shape="4345.20,4060.40 4345.20,4039.60"/>
        <lane id=":1_1_1" index="1" speed="13.89" length="20.80" shape="4348.40,4060.40 4348.40,4039.60"/>
    </edge>
    <edge id=":1_3" function="internal">
        <lane id=":1_3_0" index="0" speed="9.26" length="5.01" shape="4348.40,4060.40 4349.11,4055.44"/>
    </edge>
    <edge id=":1_4" function="internal">
        <lane id=":1_4_0" index="0" speed="3.65" length="1.44" shape="4348.40,4060.40 4349.20,4059.20"/>
    </edge>
    <edge id=":1_20" function="internal">
        <lane id=":1_20_0" index="0" speed="9.26" length="14.34" shape="4349.11,4055.44 4349.15,4055.15 4351.40,4051.40 4355.15,4049.15 4360.40,4048.40"/>
    </edge>
    <edge id=":1_21" function="internal">
        <lane id=":1_21_0" index="0" speed="3.65" length="3.23" shape="4349.20,4059.20 4350.00,4058.80 4350.80,4059.20 4351.60,4060.40"/>
    </edge>
    <edge id=":1_5" function="internal">
        <lane id=":1_5_0" index="0" speed="6.51" length="9.03" shape="4360.40,4054.80 4357.95,4055.15 4356.20,4056.20 4355.15,4057.95 4354.80,4060.40"/>
    </edge>
    <edge id=":1_6" function="internal">
        <lane id=":1_6_0" index="0" speed="13.89" length="20.80" shape="4360.40,4054.80 4339.60,4054.80"/>
        <lane id=":1_6_1" index="1" speed="13.89" length="20.80" shape="4360.40,4051.60 4339.60,4051.60"/>
    </edge>
    <edge id=":1_8" function="internal">
        <lane id=":1_8_0" index="0" speed="9.26" length="5.01" shape="4360.40,4051.60 4355.44,4050.89"/>
    </edge>
    <edge id=":1_9" function="internal">
        <lane id=":1_9_0" index="0" speed="3.65" length="1.44" shape="4360.40,4051.60 4359.20,4050.80"/>
    </edge>
    <edge id=":1_22" function="internal">
        <lane id=":1_22_0" index="0" speed="9.26" length="14.34" shape="4355.44,4050.89 4355.15,4050.85 4351.40,4048.60 4349.15,4044.85 4348.40,4039.60"/>
    </edge>
    <edge id=":1_23" function="internal">
        <lane id=":1_23_0" index="0" speed="3.65" length="3.23" shape="4359.20,4050.80 4358.80,4050.00 4359.20,4049.20 4360.40,4048.40"/>
    </edge>
    <edge id=":1_10" function="internal">
        <lane id=":1_10_0" index="0" speed="6.51" length="9.03" shape="4354.80,4039.60 4355.15,4042.05 4356.20,4043.80 4357.95,4044.85 4360.40,4045.20"/>
    </edge>
    <edge id=":1_11" function="internal">
        <lane id=":1_11_0" index="0" speed="13.89" length="20.80" shape="4354.80,4039.60 4354.80,4060.40"/>
        <lane id=":1_11_1" index="1" speed="13.89" length="20.80" shape="4351.60,4039.60 4351.60,4060.40"/>
    </edge>
    <edge id=":1_13" function="internal">
        <lane id=":1_13_0" index="0" speed="9.26" length="5.01" shape="4351.60,4039.60 4350.89,4044.56"/>
    </edge>
    <edge id=":1_14" function="internal">
        <lane id=":1_14_0" index="0" speed="3.65" length="1.44" shape="4351.60,4039.60 4350.80,4040.80"/>
    </edge>
    <edge id=":1_24" function="internal">
        <lane id=":1_24_0" index="0" speed="9.26" length="14.34" shape="4350.89,4044.56 4350.85,4044.85 4348.60,4048.60 4344.85,4050.85 4339.60,4051.60"/>
    </edge>
    <edge id=":1_25" function="internal">
        <lane id=":1_25_0" index="0" speed="3.65" length="3.23" shape="4350.80,4040.80 4350.00,4041.20 4349.20,4040.80 4348.40,4039.60"/>
    </edge>
    <edge id=":1_15" function="internal">
        <lane id=":1_15_0" index="0" speed="6.51" length="9.03" shape="4339.60,4045.20 4342.05,4044.85 4343.80,4043.80 4344.85,4042.05 4345.20,4039.60"/>
    </edge>
    <edge id=":1_16" function="internal">
        <lane id=":1_16_0" index="0" speed="13.89" length="20.80" shape="4339.60,4045.20 4360.40,4045.20"/>
        <lane id=":1_16_1" index="1" speed="13.89" length="20.80" shape="4339.60,4048.40 4360.40,4048.40"/>
    </edge>
    <edge id=":1_18" function="internal">
        <lane id=":1_18_0" index="0" speed="9.26" length="5.01" shape="4339.60,4048.40 4344.56,4049.11"/>
    </edge>
    <edge id=":1_19" function="internal">
        <lane id=":1_19_0" index="0" speed="3.65" length="1.44" shape="4339.60,4048.40 4340.80,4049.20"/>
    </edge>
    <edge id=":1_26" function="internal">
        <lane id=":1_26_0" index="0" speed="9.26" length="14.34" shape="4344.56,4049.11 4344.85,4049.15 4348.60,4051.40 4350.85,4055.15 4351.60,4060.40"/>
    </edge>
    <edge id=":1_27" function="internal">
        <lane id=":1_27_0" index="0" speed="3.65" length="3.23" shape="4340.80,4049.20 4341.20,4050.00 4340.80,4050.80 4339.60,4051.60"/>
    </edge>
    <edge id=":10_0" function="internal">
        <lane id=":10_0_0" index="0" speed="13.89" length="20.80" shape="4195.20,4060.40 4195.20,4039.60"/>
        <lane id=":10_0_1" index="1" speed="13.89" length="20.80" shape="4198.40,4060.40 4198.40,4039.60"/>
    </edge>
    <edge id=":10_2" function="internal">
        <lane id=":10_2_0" index="0" speed="9.26" length="5.01" shape="4198.40,4060.40 4199.11,4055.44"/>
    </edge>
    <edge id=":10_3" function="internal">
        <lane id=":10_3_0" index="0" speed="3.65" length="1.44" shape="4198.40,4060.40 4199.20,4059.20"/>
    </edge>
    <edge id=":10_12" function="internal">
        <lane id=":10_12_0" index="0" speed="9.26" length="14.34" shape="4199.11,4055.44 4199.15,4055.15 4201.40,4051.40 4205.15,4049.15 4210.40,4048.40"/>
    </edge>
    <edge id=":10_13" function="internal">
        <lane id=":10_13_0" index="0" speed="3.65" length="3.23" shape="4199.20,4059.20 4200.00,4058.80 4200.80,4059.20 4201.60,4060.40"/>
    </edge>
    <edge id=":10_4" function="internal">
        <lane id=":10_4_0" index="0" speed="6.51" length="9.03" shape="4210.40,4054.80 4207.95,4055.15 4206.20,4056.20 4205.15,4057.95 4204.80,4060.40"/>
        <lane id=":10_4_1" index="1" speed="8.00" length="14.19" shape="4210.40,4051.60 4206.55,4052.15 4203.80,4053.80 4202.15,4056.55 4201.60,4060.40"/>
    </edge>
    <edge id=":10_6" function="internal">
        <lane id=":10_6_0" index="0" speed="9.26" length="19.35" shape="4210.40,4051.60 4205.15,4050.85 4201.40,4048.60 4199.15,4044.85 4198.40,4039.60"/>
    </edge>
    <edge id=":10_7" function="internal">
        <lane id=":10_7_0" index="0" speed="3.65" length="2.34" shape="4210.40,4051.60 4209.20,4050.80 4208.80,4050.00"/>
    </edge>
    <edge id=":10_14" function="internal">
        <lane id=":10_14_0" index="0" speed="3.65" length="2.34" shape="4208.80,4050.00 4209.20,4049.20 4210.40,4048.40"/>
    </edge>
    <edge id=":10_8" function="internal">
        <lane id=":10_8_0" index="0" speed="6.51" length="9.03" shape="4204.80,4039.60 4205.15,4042.05 4206.20,4043.80 4207.95,4044.85 4210.40,4045.20"/>
    </edge>
    <edge id=":10_9" function="internal">
        <lane id=":10_9_0" index="0" speed="13.89" length="20.80" shape="4204.80,4039.60 4204.80,4060.40"/>
        <lane id=":10_9_1" index="1" speed="13.89" length="20.80" shape="4201.60,4039.60 4201.60,4060.40"/>
    </edge>
    <edge id=":10_11" function="internal">
        <lane id=":10_11_0" index="0" speed="3.65" length="1.44" shape="4201.60,4039.60 4200.80,4040.80"/>
    </edge>
    <edge id=":10_15" function="internal">
        <lane id=":10_15_0" index="0" speed="3.65" length="3.23" shape="4200.80,4040.80 4200.00,4041.20 4199.20,4040.80 4198.40,4039.60"/>
    </edge>
    <edge id=":1038_0" function="internal">
        <lane id=":1038_0_0" index="0" speed="13.89" length="0.10" shape="5845.20,5550.00 5845.20,5550.00"/>
        <lane id=":1038_0_1" index="1" speed="13.89" length="0.10" shape="5848.40,5550.00 5848.40,5550.00"/>
    </edge>
    <edge id=":1038_2" function="internal">
        <lane id=":1038_2_0" index="0" speed="13.89" length="0.10" shape="5854.80,5550.00 5854.80,5550.00"/>
        <lane id=":1038_2_1" index="1" speed="13.89" length="0.10" shape="5851.60,5550.00 5851.60,5550.00"/>
    </edge>
    <edge id=":1042_0" function="internal">
        <lane id=":1042_0_0" index="0" speed="3.92" length="2.28" shape="4046.16,2556.14 4045.97,2555.55 4045.65,2555.13 4045.19,2554.88 4044.58,2554.80"/>
        <lane id=":1042_0_1" index="1" speed="6.11" length="6.85" shape="4049.31,2555.61 4048.77,2553.86 4047.80,2552.60 4046.40,2551.85 4044.58,2551.60"/>
    </edge>
    <edge id=":1042_2" function="internal">
        <lane id=":1042_2_0" index="0" speed="9.01" length="15.98" shape="4044.58,2545.20 4048.83,2545.78 4052.08,2547.54 4054.35,2550.46 4055.63,2554.56"/>
        <lane id=":1042_2_1" index="1" speed="7.70" length="11.41" shape="4044.58,2548.40 4047.61,2548.82 4049.94,2550.07 4051.56,2552.16 4052.47,2555.08"/>
    </edge>
    <edge id=":1044_0" function="internal">
        <lane id=":1044_0_0" index="0" speed="8.96" length="18.06" shape="2406.40,2554.80 2401.50,2554.10 2398.00,2552.00 2395.90,2548.50 2395.20,2543.60"/>
        <lane id=":1044_0_1" index="1" speed="7.66" length="12.90" shape="2406.40,2551.60 2402.90,2551.10 2400.40,2549.60 2398.90,2547.10 2398.40,2543.60"/>
    </edge>
    <edge id=":1044_2" function="internal">
        <lane id=":1044_2_0" index="0" speed="3.90" length="2.58" shape="2404.80,2543.60 2404.90,2544.30 2405.20,2544.80 2405.70,2545.10 2406.40,2545.20"/>
        <lane id=":1044_2_1" index="1" speed="6.08" length="7.74" shape="2401.60,2543.60 2401.90,2545.70 2402.80,2547.20 2404.30,2548.10 2406.40,2548.40"/>
    </edge>
    <edge id=":1056_0" function="internal">
        <lane id=":1056_0_0" index="0" speed="8.96" length="18.06" shape="3445.20,2406.40 3445.90,2401.50 3448.00,2398.00 3451.50,2395.90 3456.40,2395.20"/>
        <lane id=":1056_0_1" index="1" speed="7.66" length="12.90" shape="3448.40,2406.40 3448.90,2402.90 3450.40,2400.40 3452.90,2398.90 3456.40,2398.40"/>
    </edge>
    <edge id=":1056_2" function="internal">
        <lane id=":1056_2_0" index="0" speed="3.90" length="2.58" shape="3456.40,2404.80 3455.70,2404.90 3455.20,2405.20 3454.90,2405.70 3454.80,2406.40"/>
        <lane id=":1056_2_1" index="1" speed="6.08" length="7.74" shape="3456.40,2401.60 3454.30,2401.90 3452.80,2402.80 3451.90,2404.30 3451.60,2406.40"/>
    </edge>
    <edge id=":1077_0" function="internal">
        <lane id=":1077_0_0" index="0" speed="3.65" length="4.67" shape="4651.60,5100.00 4650.80,5101.20 4650.00,5101.60 4649.20,5101.20 4648.40,5100.00"/>
    </edge>
    <edge id=":1196_0" function="internal">
        <lane id=":1196_0_0" index="0" speed="3.65" length="4.67" shape="3451.60,5400.00 3450.80,5401.20 3450.00,5401.60 3449.20,5401.20 3448.40,5400.00"/>
    </edge>
    <edge id=":1308_0" function="internal">
        <lane id=":1308_0_0" index="0" speed="8.96" length="18.06" shape="3156.40,3304.80 3151.50,3304.10 3148.00,3302.00 3145.90,3298.50 3145.20,3293.60"/>
        <lane id=":1308_0_1" index="1" speed="7.66" length="12.90" shape="3156.40,3301.60 3152.90,3301.10 3150.40,3299.60 3148.90,3297.10 3148.40,3293.60"/>
    </edge>
    <edge id=":1308_2" function="internal">
        <lane id=":1308_2_0" index="0" speed="3.90" length="2.58" shape="3154.80,3293.60 3154.90,3294.30 3155.20,3294.80 3155.70,3295.10 3156.40,3295.20"/>
        <lane id=":1308_2_1" index="1" speed="6.08" length="7.74" shape="3151.60,3293.60 3151.90,3295.70 3152.80,3297.20 3154.30,3298.10 3156.40,3298.40"/>
    </edge>
    <edge id=":1315_0" function="internal">
        <lane id=":1315_0_0" index="0" speed="8.96" length="18.06" shape="5856.40,6454.80 5851.50,6454.10 5848.00,6452.00 5845.90,6448.50 5845.20,6443.60"/>
        <lane id=":1315_0_1" index="1" speed="7.66" length="12.90" shape="5856.40,6451.60 5852.90,6451.10 5850.40,6449.60 5848.90,6447.10 5848.40,6443.60"/>
    </edge>
    <edge id=":1315_2" function="internal">
        <lane id=":1315_2_0" index="0" speed="3.90" length="2.58" shape="5854.80,6443.60 5854.90,6444.30 5855.20,6444.80 5855.70,6445.10 5856.40,6445.20"/>
        <lane id=":1315_2_1" index="1" speed="6.08" length="7.74" shape="5851.60,6443.60 5851.90,6445.70 5852.80,6447.20 5854.30,6448.10 5856.40,6448.40"/>
    </edge>
    <edge id=":14_0" function="internal">
        <lane id=":14_0_0" index="0" speed="8.96" length="18.06" shape="4354.80,4943.60 4354.10,4948.50 4352.00,4952.00 4348.50,4954.10 4343.60,4954.80"/>
        <lane id=":14_0_1" index="1" speed="7.66" length="12.90" shape="4351.60,4943.60 4351.10,4947.10 4349.60,4949.60 4347.10,4951.10 4343.60,4951.60"/>
    </edge>
    <edge id=":14_2" function="internal">
        <lane id=":14_2_0" index="0" speed="3.90" length="2.58" shape="4343.60,4945.20 4344.30,4945.10 4344.80,4944.80 4345.10,4944.30 4345.20,4943.60"/>
        <lane id=":14_2_1" index="1" speed="6.08" length="7.74" shape="4343.60,4948.40 4345.70,4948.10 4347.20,4947.20 4348.10,4945.70 4348.40,4943.60"/>
    </edge>
    <edge id=":1422_0" function="internal">
        <lane id=":1422_0_0" index="0" speed="6.51" length="9.03" shape="3145.20,3010.40 3144.85,3007.95 3143.80,3006.20 3142.05,3005.15 3139.60,3004.80"/>
    </edge>
    <edge id=":1422_1" function="internal">
        <lane id=":1422_1_0" index="0" speed="13.89" length="20.80" shape="3145.20,3010.40 3145.20,2989.60"/>
        <lane id=":1422_1_1" index="1" speed="13.89" length="20.80" shape="3148.40,3010.40 3148.40,2989.60"/>
    </edge>
    <edge id=":1422_3" function="internal">
        <lane id=":1422_3_0" index="0" speed="3.65" length="1.44" shape="3148.40,3010.40 3149.20,3009.20"/>
    </edge>
    <edge id=":1422_12" function="internal">
        <lane id=":1422_12_0" index="0" speed="3.65" length="3.23" shape="3149.20,3009.20 3150.00,3008.80 3150.80,3009.20 3151.60,3010.40"/>
    </edge>
    <edge id=":1422_4" function="internal">
        <lane id=":1422_4_0" index="0" speed="13.89" length="20.80" shape="3154.80,2989.60 3154.80,3010.40"/>
        <lane id=":1422_4_1" index="1" speed="13.89" length="20.80" shape="3151.60,2989.60 3151.60,3010.40"/>
    </edge>
    <edge id=":1422_6" function="internal">
        <lane id=":1422_6_0" index="0" speed="9.26" length="5.01" shape="3151.60,2989.60 3150.89,2994.56"/>
    </edge>
    <edge id=":1422_7" function="internal">
        <lane id=":1422_7_0" index="0" speed="3.65" length="1.44" shape="3151.60,2989.60 3150.80,2990.80"/>
    </edge>
    <edge id=":1422_13" function="internal">
        <lane id=":1422_13_0" index="0" speed="9.26" length="14.34" shape="3150.89,2994.56 3150.85,2994.85 3148.60,2998.60 3144.85,3000.85 3139.60,3001.60"/>
    </edge>
    <edge id=":1422_14" function="internal">
        <lane id=":1422_14_0" index="0" speed="3.65" length="3.23" shape="3150.80,2990.80 3150.00,2991.20 3149.20,2990.80 3148.40,2989.60"/>
    </edge>
    <edge id=":1422_8" function="internal">
        <lane id=":1422_8_0" index="0" speed="6.51" length="9.03" shape="3139.60,2995.20 3142.05,2994.85 3143.80,2993.80 3144.85,2992.05 3145.20,2989.60"/>
        <lane id=":1422_8_1" index="1" speed="8.00" length="14.19" shape="3139.60,2998.40 3143.45,2997.85 3146.20,2996.20 3147.85,2993.45 3148.40,2989.60"/>
    </edge>
    <edge id=":1422_10" function="internal">
        <lane id=":1422_10_0" index="0" speed="9.26" length="19.35" shape="3139.60,2998.40 3144.85,2999.15 3148.60,3001.40 3150.85,3005.15 3151.60,3010.40"/>
    </edge>
    <edge id=":1422_11" function="internal">
        <lane id=":1422_11_0" index="0" speed="3.65" length="2.34" shape="3139.60,2998.40 3140.80,2999.20 3141.20,3000.00"/>
    </edge>
    <edge id=":1422_15" function="internal">
        <lane id=":1422_15_0" index="0" speed="3.65" length="2.34" shape="3141.20,3000.00 3140.80,3000.80 3139.60,3001.60"/>
    </edge>
    <edge id=":1433_0" function="internal">
        <lane id=":1433_0_0" index="0" speed="6.51" length="9.03" shape="6295.20,6460.40 6294.85,6457.95 6293.80,6456.20 6292.05,6455.15 6289.60,6454.80"/>
    </edge>
    <edge id=":1433_1" function="internal">
        <lane id=":1433_1_0" index="0" speed="13.89" length="20.80" shape="6295.20,6460.40 6295.20,6439.60"/>
        <lane id=":1433_1_1" index="1" speed="13.89" length="20.80" shape="6298.40,6460.40 6298.40,6439.60"/>
    </edge>
    <edge id=":1433_3" function="internal">
        <lane id=":1433_3_0" index="0" speed="9.26" length="5.01" shape="6298.40,6460.40 6299.11,6455.44"/>
    </edge>
    <edge id=":1433_4" function="internal">
        <lane id=":1433_4_0" index="0" speed="3.65" length="1.44" shape="6298.40,6460.40 6299.20,6459.20"/>
    </edge>
    <edge id=":1433_20" function="internal">
        <lane id=":1433_20_0" index="0" speed="9.26" length="14.34" shape="6299.11,6455.44 6299.15,6455.15 6301.40,6451.40 6305.15,6449.15 6310.40,6448.40"/>
    </edge>
    <edge id=":1433_21" function="internal">
        <lane id=":1433_21_0" index="0" speed="3.65" length="3.23" shape="6299.20,6459.20 6300.00,6458.80 6300.80,6459.20 6301.60,6460.40"/>
    </edge>
    <edge id=":1433_5" function="internal">
        <lane id=":1433_5_0" index="0" speed="6.51" length="9.03" shape="6310.40,6454.80 6307.95,6455.15 6306.20,6456.20 6305.15,6457.95 6304.80,6460.40"/>
    </edge>
    <edge id=":1433_6" function="internal">
        <lane id=":1433_6_0" index="0" speed="13.89" length="20.80" shape="6310.40,6454.80 6289.60,6454.80"/>
        <lane id=":1433_6_1" index="1" speed="13.89" length="20.80" shape="6310.40,6451.60 6289.60,6451.60"/>
    </edge>
    <edge id=":1433_8" function="internal">
        <lane id=":1433_8_0" index="0" speed="9.26" length="5.01" shape="6310.40,6451.60 6305.44,6450.89"/>
    </edge>
    <edge id=":1433_9" function="internal">
        <lane id=":1433_9_0" index="0" speed="3.65" length="1.44" shape="6310.40,6451.60 6309.20,6450.80"/>
    </edge>
    <edge id=":1433_22" function="internal">
        <lane id=":1433_22_0" index="0" speed="9.26" length="14.34" shape="6305.44,6450.89 6305.15,6450.85 6301.40,6448.60 6299.15,6444.85 6298.40,6439.60"/>
    </edge>
    <edge id=":1433_23" function="internal">
        <lane id=":1433_23_0" index="0" speed="3.65" length="3.23" shape="6309.20,6450.80 6308.80,6450.00 6309.20,6449.20 6310.40,6448.40"/>
    </edge>
    <edge id=":1433_10" function="internal">
        <lane id=":1433_10_0" index="0" speed="6.51" length="9.03" shape="6304.80,6439.60 6305.15,6442.05 6306.20,6443.80 6307.95,6444.85 6310.40,6445.20"/>
    </edge>
    <edge id=":1433_11" function="internal">
        <lane id=":1433_11_0" index="0" speed="13.89" length="20.80" shape="6304.80,6439.60 6304.80,6460.40"/>
        <lane id=":1433_11_1" index="1" speed="13.89" length="20.80" shape="6301.60,6439.60 6301.60,6460.40"/>
    </edge>
    <edge id=":1433_13" function="internal">
        <lane id=":1433_13_0" index="0" speed="9.26" length="5.01" shape="6301.60,6439.60 6300.89,6444.56"/>
    </edge>
    <edge id=":1433_14" function="internal">
        <lane id=":1433_14_0" index="0" speed="3.65" length="1.44" shape="6301.60,6439.60 6300.80,6440.80"/>
    </edge>
    <edge id=":1433_24" function="internal">
        <lane id=":1433_24_0" index="0" speed="9.26" length="14.34" shape="6300.89,6444.56 6300.85,6444.85 6298.60,6448.60 6294.85,6450.85 6289.60,6451.60"/>
    </edge>
    <edge id=":1433_25" function="internal">
        <lane id=":1433_25_0" index="0" speed="3.65" length="3.23" shape="6300.80,6440.80 6300.00,6441.20 6299.20,6440.80 6298.40,6439.60"/>
    </edge>
    <edge id=":1433_15" function="internal">
        <lane id=":1433_15_0" index="0" speed="6.51" length="9.03" shape="6289.60,6445.20 6292.05,6444.85 6293.80,6443.80 6294.85,6442.05 6295.20,6439.60"/>
    </edge>
    <edge id=":1433_16" function="internal">
        <lane id=":1433_16_0" index="0" speed="13.89" length="20.80" shape="6289.60,6445.20 6310.40,6445.20"/>
        <lane id=":1433_16_1" index="1" speed="13.89" length="20.80" shape="6289.60,6448.40 6310.40,6448.40"/>
    </edge>
    <edge id=":1433_18" function="internal">
        <lane id=":1433_18_0" index="0" speed="9.26" length="5.01" shape="6289.60,6448.40 6294.56,6449.11"/>
    </edge>
    <edge id=":1433_19" function="internal">
        <lane id=":1433_19_0" index="0" speed="3.65" length="1.44" shape="6289.60,6448.40 6290.80,6449.20"/>
    </edge>
    <edge id=":1433_26" function="internal">
        <lane id=":1433_26_0" index="0" speed="9.26" length="14.34" shape="6294.56,6449.11 6294.85,6449.15 6298.60,6451.40 6300.85,6455.15 6301.60,6460.40"/>
    </edge>
    <edge id=":1433_27" function="internal">
        <lane id=":1433_27_0" index="0" speed="3.65" length="3.23" shape="6290.80,6449.20 6291.20,6450.00 6290.80,6450.80 6289.60,6451.60"/>
    </edge>
    <edge id=":1445_0" function="internal">
        <lane id=":1445_0_0" index="0" speed="6.51" length="9.03" shape="7045.20,6460.40 7044.85,6457.95 7043.80,6456.20 7042.05,6455.15 7039.60,6454.80"/>
    </edge>
    <edge id=":1445_1" function="internal">
        <lane id=":1445_1_0" index="0" speed="13.89" length="20.80" shape="7045.20,6460.40 7045.20,6439.60"/>
        <lane id=":1445_1_1" index="1" speed="13.89" length="20.80" shape="7048.40,6460.40 7048.40,6439.60"/>
    </edge>
    <edge id=":1445_3" function="internal">
        <lane id=":1445_3_0" index="0" speed="9.26" length="5.01" shape="7048.40,6460.40 7049.11,6455.44"/>
    </edge>
    <edge id=":1445_4" function="internal">
        <lane id=":1445_4_0" index="0" speed="3.65" length="1.44" shape="7048.40,6460.40 7049.20,6459.20"/>
    </edge>
    <edge id=":1445_20" function="internal">
        <lane id=":1445_20_0" index="0" speed="9.26" length="14.34" shape="7049.11,6455.44 7049.15,6455.15 7051.40,6451.40 7055.15,6449.15 7060.40,6448.40"/>
    </edge>
    <edge id=":1445_21" function="internal">
        <lane id=":1445_21_0" index="0" speed="3.65" length="3.23" shape="7049.20,6459.20 7050.00,6458.80 7050.80,6459.20 7051.60,6460.40"/>
    </edge>
    <edge id=":1445_5" function="internal">
        <lane id=":1445_5_0" index="0" speed="6.51" length="9.03" shape="7060.40,6454.80 7057.95,6455.15 7056.20,6456.20 7055.15,6457.95 7054.80,6460.40"/>
    </edge>
    <edge id=":1445_6" function="internal">
        <lane id=":1445_6_0" index="0" speed="13.89" length="20.80" shape="7060.40,6454.80 7039.60,6454.80"/>
        <lane id=":1445_6_1" index="1" speed="13.89" length="20.80" shape="7060.40,6451.60 7039.60,6451.60"/>
    </edge>
    <edge id=":1445_8" function="internal">
        <lane id=":1445_8_0" index="0" speed="9.26" length="5.01" shape="7060.40,6451.60 7055.44,6450.89"/>
    </edge>
    <edge id=":1445_9" function="internal">
        <lane id=":1445_9_0" index="0" speed="3.65" length="1.44" shape="7060.40,6451.60 7059.20,6450.80"/>
    </edge>
    <edge id=":1445_22" function="internal">
        <lane id=":1445_22_0" index="0" speed="9.26" length="14.34" shape="7055.44,6450.89 7055.15,6450.85 7051.40,6448.60 7049.15,6444.85 7048.40,6439.60"/>
    </edge>
    <edge id=":1445_23" function="internal">
        <lane id=":1445_23_0" index="0" speed="3.65" length="3.23" shape="7059.20,6450.80 7058.80,6450.00 7059.20,6449.20 7060.40,6448.40"/>
    </edge>
    <edge id=":1445_10" function="internal">
        <lane id=":1445_10_0" index="0" speed="6.51" length="9.03" shape="7054.80,6439.60 7055.15,6442.05 7056.20,6443.80 7057.95,6444.85 7060.40,6445.20"/>
    </edge>
    <edge id=":1445_11" function="internal">
        <lane id=":1445_11_0" index="0" speed="13.89" length="20.80" shape="7054.80,6439.60 7054.80,6460.40"/>
        <lane id=":1445_11_1" index="1" speed="13.89" length="20.80" shape="7051.60,6439.60 7051.60,6460.40"/>
    </edge>
    <edge id=":1445_13" function="internal">
        <lane id=":1445_13_0" index="0" speed="9.26" length="5.01" shape="7051.60,6439.60 7050.89,6444.56"/>
    </edge>
    <edge id=":1445_14" function="internal">
        <lane id=":1445_14_0" index="0" speed="3.65" length="1.44" shape="7051.60,6439.60 7050.80,6440.80"/>
    </edge>
    <edge id=":1445_24" function="internal">
        <lane id=":1445_24_0" index="0" speed="9.26" length="14.34" shape="7050.89,6444.56 7050.85,6444.85 7048.60,6448.60 7044.85,6450.85 7039.60,6451.60"/>
    </edge>
    <edge id=":1445_25" function="internal">
        <lane id=":1445_25_0" index="0" speed="3.65" length="3.23" shape="7050.80,6440.80 7050.00,6441.20 7049.20,6440.80 7048.40,6439.60"/>
    </edge>
    <edge id=":1445_15" function="internal">
        <lane id=":1445_15_0" index="0" speed="6.51" length="9.03" shape="7039.60,6445.20 7042.05,6444.85 7043.80,6443.80 7044.85,6442.05 7045.20,6439.60"/>
    </edge>
    <edge id=":1445_16" function="internal">
        <lane id=":1445_16_0" index="0" speed="13.89" length="20.80" shape="7039.60,6445.20 7060.40,6445.20"/>
        <lane id=":1445_16_1" index="1" speed="13.89" length="20.80" shape="7039.60,6448.40 7060.40,6448.40"/>
    </edge>
    <edge id=":1445_18" function="internal">
        <lane id=":1445_18_0" index="0" speed="9.26" length="5.01" shape="7039.60,6448.40 7044.56,6449.11"/>
    </edge>
    <edge id=":1445_19" function="internal">
        <lane id=":1445_19_0" index="0" speed="3.65" length="1.44" shape="7039.60,6448.40 7040.80,6449.20"/>
    </edge>
    <edge id=":1445_26" function="internal">
        <lane id=":1445_26_0" index="0" speed="9.26" length="14.34" shape="7044.56,6449.11 7044.85,6449.15 7048.60,6451.40 7050.85,6455.15 7051.60,6460.40"/>
    </edge>
    <edge id=":1445_27" function="internal">
        <lane id=":1445_27_0" index="0" speed="3.65" length="3.23" shape="7040.80,6449.20 7041.20,6450.00 7040.80,6450.80 7039.60,6451.60"/>
    </edge>
    <edge id=":1447_0" function="internal">
        <lane id=":1447_0_0" index="0" speed="13.89" length="0.10" shape="6295.20,5550.00 6295.20,5550.00"/>
        <lane id=":1447_0_1" index="1" speed="13.89" length="0.10" shape="6298.40,5550.00 6298.40,5550.00"/>
    </edge>
    <edge id=":1447_2" function="internal">
        <lane id=":1447_2_0" index="0" speed="13.89" length="0.10" shape="6304.80,5550.00 6304.80,5550.00"/>
        <lane id=":1447_2_1" index="1" speed="13.89" length="0.10" shape="6301.60,5550.00 6301.60,5550.00"/>
    </edge>
    <edge id=":1453_0" function="internal">
        <lane id=":1453_0_0" index="0" speed="3.65" length="4.67" shape="6301.60,7350.00 6300.80,7351.20 6300.00,7351.60 6299.20,7351.20 6298.40,7350.00"/>
    </edge>
    <edge id=":1466_0" function="internal">
        <lane id=":1466_0_0" index="0" speed="6.51" length="9.03" shape="4345.20,2410.40 4344.85,2407.95 4343.80,2406.20 4342.05,2405.15 4339.60,2404.80"/>
    </edge>
    <edge id=":1466_1" function="internal">
        <lane id=":1466_1_0" index="0" speed="13.89" length="20.80" shape="4345.20,2410.40 4345.20,2389.60"/>
        <lane id=":1466_1_1" index="1" speed="13.89" length="20.80" shape="4348.40,2410.40 4348.40,2389.60"/>
    </edge>
    <edge id=":1466_3" function="internal">
        <lane id=":1466_3_0" index="0" speed="3.65" length="1.44" shape="4348.40,2410.40 4349.20,2409.20"/>
    </edge>
    <edge id=":1466_12" function="internal">
        <lane id=":1466_12_0" index="0" speed="3.65" length="3.23" shape="4349.20,2409.20 4350.00,2408.80 4350.80,2409.20 4351.60,2410.40"/>
    </edge>
    <edge id=":1466_4" function="internal">
        <lane id=":1466_4_0" index="0" speed="13.89" length="20.80" shape="4354.80,2389.60 4354.80,2410.40"/>
        <lane id=":1466_4_1" index="1" speed="13.89" length="20.80" shape="4351.60,2389.60 4351.60,2410.40"/>
    </edge>
    <edge id=":1466_6" function="internal">
        <lane id=":1466_6_0" index="0" speed="9.26" length="5.01" shape="4351.60,2389.60 4350.89,2394.56"/>
    </edge>
    <edge id=":1466_7" function="internal">
        <lane id=":1466_7_0" index="0" speed="3.65" length="1.44" shape="4351.60,2389.60 4350.80,2390.80"/>
    </edge>
    <edge id=":1466_13" function="internal">
        <lane id=":1466_13_0" index="0" speed="9.26" length="14.34" shape="4350.89,2394.56 4350.85,2394.85 4348.60,2398.60 4344.85,2400.85 4339.60,2401.60"/>
    </edge>
    <edge id=":1466_14" function="internal">
        <lane id=":1466_14_0" index="0" speed="3.65" length="3.23" shape="4350.80,2390.80 4350.00,2391.20 4349.20,2390.80 4348.40,2389.60"/>
    </edge>
    <edge id=":1466_8" function="internal">
        <lane id=":1466_8_0" index="0" speed="6.51" length="9.03" shape="4339.60,2395.20 4342.05,2394.85 4343.80,2393.80 4344.85,2392.05 4345.20,2389.60"/>