<?xml version="1.0" encoding="UTF-8"?>

<!-- generated on 2025-03-27 09:30:08 by Eclipse SUMO netgenerate Version 1.22.0
<netgenerateConfiguration xmlns:xsi="http://www.w3.org/2001/XMLSchema-instance" xsi:noNamespaceSchemaLocation="http://sumo.dlr.de/xsd/netgenerateConfiguration.xsd">

    <random_network>
        <rand value="true"/>
        <rand.iterations value="324"/>
        <rand.max-distance value="2439.7525790648797"/>
        <rand.min-distance value="934.8837763248591"/>
        <rand.min-angle value="32.00201648853757"/>
        <rand.neighbor-dist1 value="1.0"/>
        <rand.neighbor-dist2 value="10.0"/>
        <rand.neighbor-dist3 value="5.0"/>
        <rand.neighbor-dist4 value="5.0"/>
        <rand.neighbor-dist5 value="0.0"/>
        <rand.neighbor-dist6 value="0.0"/>
    </random_network>

    <output>
        <output-file value="configs/rand-configs/rand1.net.xml"/>
    </output>

    <tls_building>
        <tls.guess value="true"/>
        <tls.guess.threshold value="0"/>
    </tls_building>

</netgenerateConfiguration>
-->

<net version="1.20" junctionCornerDetail="5" limitTurnSpeed="5.50" xmlns:xsi="http://www.w3.org/2001/XMLSchema-instance" xsi:noNamespaceSchemaLocation="http://sumo.dlr.de/xsd/net_file.xsd">

    <location netOffset="24723.86,18736.66" convBoundary="0.00,0.00,43636.15,32602.40" origBoundary="-24723.86,-18736.66,18912.29,13865.74" projParameter="!"/>

    <edge id=":1_0" function="internal">
        <lane id=":1_0_0" index="0" speed="11.26" length="16.20" shape="24722.38,18744.06 24721.75,18740.84 24719.97,18737.70 24717.04,18734.63 24712.96,18731.64"/>
    </edge>
    <edge id=":1_1" function="internal">
        <lane id=":1_1_0" index="0" speed="13.89" length="18.84" shape="24722.38,18744.06 24722.06,18739.73 24721.36,18734.71 24720.45,18729.72 24719.53,18725.47"/>
    </edge>
    <edge id=":1_2" function="internal">
        <lane id=":1_2_0" index="0" speed="7.91" length="3.57" shape="24722.38,18744.06 24722.83,18740.52"/>
    </edge>
    <edge id=":1_3" function="internal">
        <lane id=":1_3_0" index="0" speed="3.65" length="1.44" shape="24722.38,18744.06 24723.16,18742.85"/>
    </edge>
    <edge id=":1_16" function="internal">
        <lane id=":1_16_0" index="0" speed="7.91" length="10.83" shape="24722.83,18740.52 24722.88,18740.12 24724.54,18737.35 24727.34,18735.76 24731.29,18735.34"/>
    </edge>
    <edge id=":1_17" function="internal">
        <lane id=":1_17_0" index="0" speed="3.65" length="3.23" shape="24723.16,18742.85 24723.95,18742.44 24724.76,18742.82 24725.58,18744.01"/>
    </edge>
    <edge id=":1_4" function="internal">
        <lane id=":1_4_0" index="0" speed="6.39" length="9.04" shape="24731.17,18738.54 24728.69,18738.80 24726.93,18739.80 24725.89,18741.54 24725.58,18744.01"/>
    </edge>
    <edge id=":1_5" function="internal">
        <lane id=":1_5_0" index="0" speed="13.89" length="19.61" shape="24731.17,18738.54 24726.81,18737.76 24721.77,18736.02 24716.88,18733.82 24712.96,18731.64"/>
    </edge>
    <edge id=":1_6" function="internal">
        <lane id=":1_6_0" index="0" speed="10.07" length="4.78" shape="24731.17,18738.54 24727.73,18737.23 24726.92,18736.49"/>
    </edge>
    <edge id=":1_7" function="internal">
        <lane id=":1_7_0" index="0" speed="3.65" length="1.44" shape="24731.17,18738.54 24730.00,18737.69"/>
    </edge>
    <edge id=":1_18" function="internal">
        <lane id=":1_18_0" index="0" speed="10.07" length="13.48" shape="24726.92,18736.49 24724.25,18734.07 24721.32,18729.88 24719.53,18725.47"/>
    </edge>
    <edge id=":1_19" function="internal">
        <lane id=":1_19_0" index="0" speed="3.65" length="3.23" shape="24730.00,18737.69 24729.63,18736.88 24730.06,18736.10 24731.29,18735.34"/>
    </edge>
    <edge id=":1_8" function="internal">
        <lane id=":1_8_0" index="0" speed="9.08" length="14.69" shape="24722.64,18724.72 24724.12,18729.28 24726.05,18732.57 24728.44,18734.59 24731.29,18735.34"/>
    </edge>
    <edge id=":1_9" function="internal">
        <lane id=":1_9_0" index="0" speed="13.89" length="19.54" shape="24722.64,18724.72 24723.58,18729.08 24724.52,18734.31 24725.25,18739.57 24725.58,18744.01"/>
    </edge>
    <edge id=":1_10" function="internal">
        <lane id=":1_10_0" index="0" speed="7.43" length="6.42" shape="24722.64,18724.72 24723.42,18730.93 24723.36,18731.08"/>
    </edge>
    <edge id=":1_11" function="internal">
        <lane id=":1_11_0" index="0" speed="3.65" length="1.44" shape="24722.64,18724.72 24722.14,18726.07"/>
    </edge>
    <edge id=":1_20" function="internal">
        <lane id=":1_20_0" index="0" speed="7.43" length="13.09" shape="24723.36,18731.08 24722.07,18734.15 24718.58,18734.39 24712.96,18731.64"/>
    </edge>
    <edge id=":1_21" function="internal">
        <lane id=":1_21_0" index="0" speed="3.65" length="3.23" shape="24722.14,18726.07 24721.46,18726.65 24720.59,18726.45 24719.53,18725.47"/>
    </edge>
    <edge id=":1_12" function="internal">
        <lane id=":1_12_0" index="0" speed="5.47" length="9.79" shape="24714.67,18728.94 24717.49,18730.32 24719.24,18730.20 24719.92,18728.58 24719.53,18725.47"/>
    </edge>
    <edge id=":1_13" function="internal">
        <lane id=":1_13_0" index="0" speed="13.89" length="17.96" shape="24714.67,18728.94 24718.35,18731.04 24722.69,18733.07 24727.18,18734.64 24731.29,18735.34"/>
    </edge>
    <edge id=":1_14" function="internal">
        <lane id=":1_14_0" index="0" speed="12.18" length="5.03" shape="24714.67,18728.94 24718.58,18732.11"/>
    </edge>
    <edge id=":1_15" function="internal">
        <lane id=":1_15_0" index="0" speed="3.65" length="1.44" shape="24714.67,18728.94 24715.26,18730.26"/>
    </edge>
    <edge id=":1_22" function="internal">
        <lane id=":1_22_0" index="0" speed="12.18" length="14.02" shape="24718.58,18732.11 24722.06,18736.17 24724.58,18740.38 24725.58,18744.01"/>
    </edge>
    <edge id=":1_23" function="internal">
        <lane id=":1_23_0" index="0" speed="3.65" length="3.23" shape="24715.26,18730.26 24715.17,18731.15 24714.40,18731.61 24712.96,18731.64"/>
    </edge>
    <edge id=":10_0" function="internal">
        <lane id=":10_0_0" index="0" speed="13.89" length="13.57" shape="22635.08,17008.79 22631.81,17010.08 22629.00,17011.69 22626.36,17013.63 22623.62,17015.87"/>
    </edge>
    <edge id=":10_1" function="internal">
        <lane id=":10_1_0" index="0" speed="13.51" length="14.92" shape="22635.08,17008.79 22631.45,17009.35 22627.78,17008.98 22624.15,17007.95 22620.64,17006.53"/>
    </edge>
    <edge id=":10_2" function="internal">
        <lane id=":10_2_0" index="0" speed="3.65" length="1.44" shape="22635.08,17008.79 22633.69,17008.39"/>
    </edge>
    <edge id=":10_9" function="internal">
        <lane id=":10_9_0" index="0" speed="3.65" length="3.23" shape="22633.69,17008.39 22633.08,17007.74 22633.22,17006.86 22634.13,17005.74"/>
    </edge>
    <edge id=":10_3" function="internal">
        <lane id=":10_3_0" index="0" speed="12.49" length="12.71" shape="22621.95,17003.61 22625.11,17005.01 22627.96,17006.00 22630.85,17006.32 22634.13,17005.74"/>
    </edge>
    <edge id=":10_4" function="internal">
        <lane id=":10_4_0" index="0" speed="7.44" length="16.35" shape="22621.95,17003.61 22626.06,17006.17 22627.71,17009.07 22626.89,17012.31 22623.62,17015.87"/>
    </edge>
    <edge id=":10_5" function="internal">
        <lane id=":10_5_0" index="0" speed="3.65" length="1.44" shape="22621.95,17003.61 22622.72,17004.83"/>
    </edge>
    <edge id=":10_10" function="internal">
        <lane id=":10_10_0" index="0" speed="3.65" length="3.23" shape="22622.72,17004.83 22622.75,17005.72 22622.06,17006.29 22620.64,17006.53"/>
    </edge>
    <edge id=":10_6" function="internal">
        <lane id=":10_6_0" index="0" speed="5.74" length="9.18" shape="22621.58,17013.41 22623.41,17011.41 22623.87,17009.59 22622.94,17007.97 22620.64,17006.53"/>
    </edge>
    <edge id=":10_7" function="internal">
        <lane id=":10_7_0" index="0" speed="13.89" length="14.81" shape="22621.58,17013.41 22624.49,17011.07 22627.51,17008.93 22630.69,17007.11 22634.13,17005.74"/>
    </edge>
    <edge id=":10_8" function="internal">
        <lane id=":10_8_0" index="0" speed="3.65" length="1.44" shape="22621.58,17013.41 22623.01,17013.26"/>
    </edge>
    <edge id=":10_11" function="internal">
        <lane id=":10_11_0" index="0" speed="3.65" length="3.23" shape="22623.01,17013.26 22623.83,17013.62 22624.03,17014.49 22623.62,17015.87"/>
    </edge>
    <edge id=":1007_0" function="internal">
        <lane id=":1007_0_0" index="0" speed="13.89" length="0.68" shape="30445.61,29937.95 30445.49,29938.11 30445.42,29938.23 30445.37,29938.36 30445.32,29938.56"/>
    </edge>
    <edge id=":1007_1" function="internal">
        <lane id=":1007_1_0" index="0" speed="8.60" length="2.04" shape="30442.21,29937.82 30442.36,29937.23 30442.50,29936.84 30442.71,29936.48 30443.08,29936.00"/>
    </edge>
    <edge id=":1012_0" function="internal">
        <lane id=":1012_0_0" index="0" speed="6.12" length="10.01" shape="23143.43,31752.31 23140.56,31751.81 23138.90,31750.54 23138.42,31748.50 23139.14,31745.68"/>
    </edge>
    <edge id=":1012_1" function="internal">
        <lane id=":1012_1_0" index="0" speed="3.92" length="3.34" shape="23142.10,31746.90 23141.86,31747.84 23142.02,31748.52 23142.58,31748.94 23143.53,31749.11"/>
    </edge>
    <edge id=":1014_0" function="internal">
        <lane id=":1014_0_0" index="0" speed="13.89" length="14.26" shape="24714.84,31803.61 24700.60,31802.74"/>
    </edge>
    <edge id=":1014_1" function="internal">
        <lane id=":1014_1_0" index="0" speed="7.73" length="4.06" shape="24714.84,31803.61 24710.88,31802.69"/>
    </edge>
    <edge id=":1014_2" function="internal">
        <lane id=":1014_2_0" index="0" speed="3.65" length="1.44" shape="24714.84,31803.61 24713.71,31802.71"/>
    </edge>
    <edge id=":1014_9" function="internal">
        <lane id=":1014_9_0" index="0" speed="7.73" length="10.81" shape="24710.88,31802.69 24710.77,31802.66 24708.21,31800.65 24707.15,31797.56 24707.61,31793.41"/>
    </edge>
    <edge id=":1014_10" function="internal">
        <lane id=":1014_10_0" index="0" speed="3.65" length="3.23" shape="24713.71,31802.71 24713.38,31801.88 24713.84,31801.11 24715.11,31800.42"/>
    </edge>
    <edge id=":1014_3" function="internal">
        <lane id=":1014_3_0" index="0" speed="6.17" length="9.05" shape="24710.71,31794.21 24710.43,31796.74 24711.07,31798.62 24712.63,31799.84 24715.11,31800.42"/>
    </edge>
    <edge id=":1014_4" function="internal">
        <lane id=":1014_4_0" index="0" speed="8.79" length="14.44" shape="24710.71,31794.21 24709.23,31798.04 24707.05,31800.73 24704.17,31802.30 24700.60,31802.74"/>
    </edge>
    <edge id=":1014_5" function="internal">
        <lane id=":1014_5_0" index="0" speed="3.65" length="1.44" shape="24710.71,31794.21 24709.63,31795.17"/>
    </edge>
    <edge id=":1014_11" function="internal">
        <lane id=":1014_11_0" index="0" speed="3.65" length="3.23" shape="24709.63,31795.17 24708.76,31795.36 24708.08,31794.77 24707.61,31793.41"/>
    </edge>
    <edge id=":1014_6" function="internal">
        <lane id=":1014_6_0" index="0" speed="7.43" length="10.07" shape="24700.71,31799.54 24703.12,31799.22 24705.07,31798.09 24706.57,31796.16 24707.61,31793.41"/>
    </edge>
    <edge id=":1014_7" function="internal">
        <lane id=":1014_7_0" index="0" speed="13.89" length="14.43" shape="24700.71,31799.54 24715.11,31800.42"/>
    </edge>
    <edge id=":1014_8" function="internal">
        <lane id=":1014_8_0" index="0" speed="3.65" length="1.44" shape="24700.71,31799.54 24701.88,31800.38"/>
    </edge>
    <edge id=":1014_12" function="internal">
        <lane id=":1014_12_0" index="0" speed="3.65" length="3.23" shape="24701.88,31800.38 24702.25,31801.19 24701.83,31801.98 24700.60,31802.74"/>
    </edge>
    <edge id=":1022_0" function="internal">
        <lane id=":1022_0_0" index="0" speed="6.21" length="9.05" shape="26787.34,28281.69 26785.77,28279.70 26783.99,28278.81 26782.01,28279.00 26779.83,28280.29"/>
    </edge>
    <edge id=":1022_1" function="internal">
        <lane id=":1022_1_0" index="0" speed="13.89" length="14.61" shape="26787.34,28281.69 26785.45,28278.52 26783.50,28275.48 26781.46,28272.49 26779.29,28269.51"/>
    </edge>
    <edge id=":1022_2" function="internal">
        <lane id=":1022_2_0" index="0" speed="3.65" length="1.44" shape="26787.34,28281.69 26787.43,28280.25"/>
    </edge>
    <edge id=":1022_9" function="internal">
        <lane id=":1022_9_0" index="0" speed="3.65" length="3.23" shape="26787.43,28280.25 26787.92,28279.50 26788.81,28279.44 26790.11,28280.08"/>
    </edge>
    <edge id=":1022_3" function="internal">
        <lane id=":1022_3_0" index="0" speed="13.89" length="14.99" shape="26781.85,28267.58 26784.05,28270.61 26786.16,28273.71 26788.18,28276.86 26790.11,28280.08"/>
    </edge>
    <edge id=":1022_4" function="internal">
        <lane id=":1022_4_0" index="0" speed="8.19" length="4.08" shape="26781.85,28267.58 26783.67,28270.97 26783.69,28271.20"/>
    </edge>
    <edge id=":1022_5" function="internal">
        <lane id=":1022_5_0" index="0" speed="3.65" length="1.44" shape="26781.85,28267.58 26781.93,28269.02"/>
    </edge>
    <edge id=":1022_10" function="internal">
        <lane id=":1022_10_0" index="0" speed="8.19" length="10.50" shape="26783.69,28271.20 26783.95,28274.22 26782.66,28277.32 26779.83,28280.29"/>
    </edge>
    <edge id=":1022_11" function="internal">
        <lane id=":1022_11_0" index="0" speed="3.65" length="3.23" shape="26781.93,28269.02 26781.53,28269.82 26780.65,28269.98 26779.29,28269.51"/>
    </edge>
    <edge id=":1022_6" function="internal">
        <lane id=":1022_6_0" index="0" speed="6.74" length="9.53" shape="26777.82,28277.79 26779.72,28275.83 26780.59,28273.80 26780.45,28271.69 26779.29,28269.51"/>
    </edge>
    <edge id=":1022_7" function="internal">
        <lane id=":1022_7_0" index="0" speed="7.76" length="14.79" shape="26777.82,28277.79 26781.39,28275.69 26784.63,28275.37 26787.53,28276.83 26790.11,28280.08"/>
    </edge>
    <edge id=":1022_8" function="internal">
        <lane id=":1022_8_0" index="0" speed="3.65" length="1.44" shape="26777.82,28277.79 26779.26,28277.67"/>
    </edge>
    <edge id=":1022_12" function="internal">
        <lane id=":1022_12_0" index="0" speed="3.65" length="3.23" shape="26779.26,28277.67 26780.07,28278.04 26780.26,28278.92 26779.83,28280.29"/>
    </edge>
    <edge id=":1040_0" function="internal">
        <lane id=":1040_0_0" index="0" speed="3.65" length="4.67" shape="26827.61,26235.22 26828.95,26235.74 26829.52,26236.43 26829.30,26237.30 26828.31,26238.35"/>
    </edge>
    <edge id=":1044_0" function="internal">
        <lane id=":1044_0_0" index="0" speed="6.22" length="11.58" shape="19414.49,24982.60 19413.03,24979.43 19413.20,24977.14 19415.02,24975.75 19418.48,24975.24"/>
    </edge>
    <edge id=":1044_1" function="internal">
        <lane id=":1044_1_0" index="0" speed="3.98" length="3.86" shape="19418.53,24978.44 19417.37,24978.61 19416.77,24979.08 19416.71,24979.84 19417.20,24980.90"/>
    </edge>
    <edge id=":1050_0" function="internal">
        <lane id=":1050_0_0" index="0" speed="6.26" length="12.06" shape="21700.93,24943.54 21704.58,24943.96 21706.48,24945.34 21706.62,24947.68 21705.00,24950.99"/>
    </edge>
    <edge id=":1050_1" function="internal">
        <lane id=":1050_1_0" index="0" speed="4.00" length="4.02" shape="21702.33,24949.22 21702.87,24948.12 21702.82,24947.34 21702.19,24946.88 21700.97,24946.74"/>
    </edge>
    <edge id=":1070_0" function="internal">
        <lane id=":1070_0_0" index="0" speed="6.09" length="9.39" shape="30039.88,29722.91 30040.14,29725.58 30039.43,29727.46 30037.74,29728.55 30035.08,29728.85"/>
    </edge>
    <edge id=":1070_1" function="internal">
        <lane id=":1070_1_0" index="0" speed="3.91" length="3.13" shape="30035.17,29725.65 30036.06,29725.55 30036.62,29725.19 30036.86,29724.56 30036.77,29723.67"/>
    </edge>
    <edge id=":1074_0" function="internal">
        <lane id=":1074_0_0" index="0" speed="13.89" length="0.10" shape="28488.00,25328.04 28487.97,25327.97"/>
    </edge>
    <edge id=":1074_1" function="internal">
        <lane id=":1074_1_0" index="0" speed="13.89" length="0.10" shape="28490.92,25326.74 28490.89,25326.67"/>
    </edge>
    <edge id=":1178_0" function="internal">
        <lane id=":1178_0_0" index="0" speed="13.89" length="0.45" shape="21174.08,13024.49 21173.95,13024.52 21173.86,13024.54 21173.77,13024.56 21173.64,13024.59"/>
    </edge>
    <edge id=":1178_1" function="internal">
        <lane id=":1178_1_0" index="0" speed="13.89" length="0.15" shape="21173.07,13021.44 21173.12,13021.43 21173.14,13021.42 21173.17,13021.42 21173.22,13021.41"/>
    </edge>
    <edge id=":1180_0" function="internal">
        <lane id=":1180_0_0" index="0" speed="9.47" length="12.06" shape="38464.45,17206.03 38462.94,17204.09 38460.69,17202.65 38457.69,17201.69 38453.94,17201.22"/>
    </edge>
    <edge id=":1180_1" function="internal">
        <lane id=":1180_1_0" index="0" speed="13.89" length="16.69" shape="38464.45,17206.03 38457.44,17190.88"/>
    </edge>
    <edge id=":1180_2" function="internal">
        <lane id=":1180_2_0" index="0" speed="11.80" length="3.90" shape="38464.45,17206.03 38463.44,17202.80 38463.45,17202.29"/>
    </edge>
    <edge id=":1180_3" function="internal">
        <lane id=":1180_3_0" index="0" speed="3.65" length="1.44" shape="38464.45,17206.03 38464.61,17204.60"/>
    </edge>
    <edge id=":1180_16" function="internal">
        <lane id=":1180_16_0" index="0" speed="11.80" length="13.04" shape="38463.45,17202.29 38463.48,17199.02 38464.56,17194.70 38466.69,17189.82"/>
    </edge>
    <edge id=":1180_17" function="internal">
        <lane id=":1180_17_0" index="0" speed="3.65" length="3.23" shape="38464.61,17204.60 38465.13,17203.88 38466.03,17203.86 38467.29,17204.56"/>
    </edge>
    <edge id=":1180_4" function="internal">
        <lane id=":1180_4_0" index="0" speed="10.73" length="13.91" shape="38469.54,17191.29 38467.69,17195.43 38466.70,17199.02 38466.57,17202.06 38467.29,17204.56"/>
    </edge>
    <edge id=":1180_5" function="internal">
        <lane id=":1180_5_0" index="0" speed="11.23" length="19.63" shape="38469.54,17191.29 38466.54,17195.84 38462.94,17199.01 38458.74,17200.81 38453.94,17201.22"/>
    </edge>
    <edge id=":1180_6" function="internal">
        <lane id=":1180_6_0" index="0" speed="7.38" length="7.85" shape="38469.54,17191.29 38466.35,17195.97 38464.39,17196.93"/>
    </edge>
    <edge id=":1180_7" function="internal">
        <lane id=":1180_7_0" index="0" speed="3.65" length="1.44" shape="38469.54,17191.29 38468.28,17191.99"/>
    </edge>
    <edge id=":1180_18" function="internal">
        <lane id=":1180_18_0" index="0" speed="7.38" length="10.33" shape="38464.39,17196.93 38463.28,17197.47 38460.31,17195.77 38457.44,17190.88"/>
    </edge>
    <edge id=":1180_19" function="internal">
        <lane id=":1180_19_0" index="0" speed="3.65" length="3.23" shape="38468.28,17191.99 38467.38,17191.98 38466.86,17191.25 38466.69,17189.82"/>
    </edge>
    <edge id=":1180_8" function="internal">
        <lane id=":1180_8_0" index="0" speed="5.53" length="9.49" shape="38460.38,17189.61 38461.88,17192.16 38463.43,17193.05 38465.03,17192.27 38466.69,17189.82"/>
    </edge>
    <edge id=":1180_9" function="internal">
        <lane id=":1180_9_0" index="0" speed="13.89" length="16.47" shape="38460.38,17189.61 38467.29,17204.56"/>
    </edge>
    <edge id=":1180_10" function="internal">
        <lane id=":1180_10_0" index="0" speed="7.67" length="4.97" shape="38460.38,17189.61 38461.80,17194.38"/>
    </edge>
    <edge id=":1180_11" function="internal">
        <lane id=":1180_11_0" index="0" speed="3.65" length="1.44" shape="38460.38,17189.61 38460.12,17191.03"/>
    </edge>
    <edge id=":1180_20" function="internal">
        <lane id=":1180_20_0" index="0" speed="7.67" length="12.55" shape="38461.80,17194.38 38461.97,17194.93 38461.42,17198.63 38458.75,17200.73 38453.94,17201.22"/>
    </edge>
    <edge id=":1180_21" function="internal">
        <lane id=":1180_21_0" index="0" speed="3.65" length="3.23" shape="38460.12,17191.03 38459.55,17191.71 38458.66,17191.67 38457.44,17190.88"/>
    </edge>
    <edge id=":1180_12" function="internal">
        <lane id=":1180_12_0" index="0" speed="6.04" length="10.33" shape="38454.12,17198.03 38456.79,17197.71 38458.24,17196.42 38458.45,17194.14 38457.44,17190.88"/>
    </edge>
    <edge id=":1180_13" function="internal">
        <lane id=":1180_13_0" index="0" speed="10.16" length="15.94" shape="38454.12,17198.03 38457.95,17197.68 38461.32,17196.19 38464.24,17193.58 38466.69,17189.82"/>
    </edge>
    <edge id=":1180_14" function="internal">
        <lane id=":1180_14_0" index="0" speed="10.64" length="3.18" shape="38454.12,17198.03 38457.27,17198.45"/>
    </edge>
    <edge id=":1180_15" function="internal">
        <lane id=":1180_15_0" index="0" speed="3.65" length="1.30" shape="38454.12,17198.03 38455.16,17198.81"/>
    </edge>
    <edge id=":1180_22" function="internal">
        <lane id=":1180_22_0" index="0" speed="10.64" length="12.20" shape="38457.27,17198.45 38458.72,17198.64 38462.45,17199.93 38465.30,17201.91 38467.29,17204.56"/>
    </edge>
    <edge id=":1180_23" function="internal">
        <lane id=":1180_23_0" index="0" speed="3.65" length="3.37" shape="38455.16,17198.81 38455.27,17198.89 38455.63,17199.71 38455.19,17200.49 38453.94,17201.22"/>
    </edge>
    <edge id=":1182_0" function="internal">
        <lane id=":1182_0_0" index="0" speed="12.34" length="16.19" shape="35598.88,15373.83 35595.49,15369.37 35592.39,15366.12 35589.59,15364.09 35587.08,15363.26"/>
    </edge>
    <edge id=":1182_1" function="internal">
        <lane id=":1182_1_0" index="0" speed="7.53" length="20.96" shape="35598.88,15373.83 35595.51,15367.81 35595.53,15364.22 35598.92,15363.05 35605.70,15364.30"/>
    </edge>
    <edge id=":1182_2" function="internal">
        <lane id=":1182_2_0" index="0" speed="3.65" length="1.44" shape="35598.88,15373.83 35598.85,15372.38"/>
    </edge>
    <edge id=":1182_9" function="internal">
        <lane id=":1182_9_0" index="0" speed="3.65" length="3.23" shape="35598.85,15372.38 35599.27,15371.60 35600.16,15371.47 35601.50,15371.99"/>
    </edge>
    <edge id=":1182_3" function="internal">
        <lane id=":1182_3_0" index="0" speed="5.46" length="10.16" shape="35604.81,15367.38 35601.52,15366.77 35599.88,15367.34 35599.87,15369.08 35601.50,15371.99"/>
    </edge>
    <edge id=":1182_4" function="internal">
        <lane id=":1182_4_0" index="0" speed="13.89" length="18.22" shape="35604.81,15367.38 35600.71,15366.21 35596.01,15364.97 35591.27,15363.90 35587.08,15363.26"/>
    </edge>
    <edge id=":1182_5" function="internal">
        <lane id=":1182_5_0" index="0" speed="3.65" length="1.44" shape="35604.81,15367.38 35603.88,15366.27"/>
    </edge>
    <edge id=":1182_10" function="internal">
        <lane id=":1182_10_0" index="0" speed="3.65" length="3.23" shape="35603.88,15366.27 35603.72,15365.39 35604.32,15364.74 35605.70,15364.30"/>
    </edge>
    <edge id=":1182_6" function="internal">
        <lane id=":1182_6_0" index="0" speed="13.89" length="18.81" shape="35587.39,15360.07 35591.67,15360.74 35596.61,15361.84 35601.51,15363.12 35605.70,15364.30"/>
    </edge>
    <edge id=":1182_7" function="internal">
        <lane id=":1182_7_0" index="0" speed="13.32" length="3.81" shape="35587.39,15360.07 35590.59,15361.04 35590.97,15361.30"/>
    </edge>
    <edge id=":1182_8" function="internal">
        <lane id=":1182_8_0" index="0" speed="3.65" length="1.44" shape="35587.39,15360.07 35588.50,15360.98"/>
    </edge>
    <edge id=":1182_11" function="internal">
        <lane id=":1182_11_0" index="0" speed="13.32" length="15.12" shape="35590.97,15361.30 35594.01,15363.35 35597.65,15367.00 35601.50,15371.99"/>
    </edge>
    <edge id=":1182_12" function="internal">
        <lane id=":1182_12_0" index="0" speed="3.65" length="3.23" shape="35588.50,15360.98 35588.83,15361.82 35588.35,15362.57 35587.08,15363.26"/>
    </edge>
    <edge id=":1184_0" function="internal">
        <lane id=":1184_0_0" index="0" speed="13.89" length="23.26" shape="32708.14,17984.73 32704.31,17987.92 32698.60,17991.23 32692.57,17993.97 32687.75,17995.46"/>
    </edge>
    <edge id=":1184_1" function="internal">
        <lane id=":1184_1_0" index="0" speed="10.53" length="22.03" shape="32708.14,17984.73 32704.10,17988.25 32699.43,17989.75 32694.13,17989.23 32688.21,17986.70"/>
    </edge>
    <edge id=":1184_2" function="internal">
        <lane id=":1184_2_0" index="0" speed="7.51" length="18.44" shape="32708.14,17984.73 32704.15,17988.42 32700.80,17989.04 32698.09,17986.56 32696.02,17981.01"/>
    </edge>
    <edge id=":1184_3" function="internal">
        <lane id=":1184_3_0" index="0" speed="3.65" length="1.44" shape="32708.14,17984.73 32706.76,17985.15"/>
    </edge>
    <edge id=":1184_16" function="internal">
        <lane id=":1184_16_0" index="0" speed="3.65" length="3.23" shape="32706.76,17985.15 32705.89,17984.95 32705.52,17984.13 32705.67,17982.70"/>
    </edge>
    <edge id=":1184_4" function="internal">
        <lane id=":1184_4_0" index="0" speed="5.74" length="10.11" shape="32699.13,17980.24 32700.28,17983.40 32701.75,17984.86 32703.55,17984.62 32705.67,17982.70"/>
    </edge>
    <edge id=":1184_5" function="internal">
        <lane id=":1184_5_0" index="0" speed="9.59" length="22.04" shape="32699.13,17980.24 32699.60,17985.98 32697.86,17990.43 32693.91,17993.59 32687.75,17995.46"/>
    </edge>
    <edge id=":1184_6" function="internal">
        <lane id=":1184_6_0" index="0" speed="7.59" length="19.97" shape="32699.13,17980.24 32699.80,17986.16 32698.21,17989.21 32694.35,17989.39 32688.21,17986.70"/>
    </edge>
    <edge id=":1184_7" function="internal">
        <lane id=":1184_7_0" index="0" speed="3.65" length="1.44" shape="32699.13,17980.24 32698.64,17981.60"/>
    </edge>
    <edge id=":1184_17" function="internal">
        <lane id=":1184_17_0" index="0" speed="3.65" length="3.23" shape="32698.64,17981.60 32697.96,17982.18 32697.08,17981.98 32696.02,17981.01"/>
    </edge>
    <edge id=":1184_8" function="internal">
        <lane id=":1184_8_0" index="0" speed="5.73" length="10.69" shape="32689.79,17983.91 32693.21,17985.45 32695.39,17985.48 32696.32,17984.00 32696.02,17981.01"/>
    </edge>
    <edge id=":1184_9" function="internal">
        <lane id=":1184_9_0" index="0" speed="9.44" length="17.50" shape="32689.79,17983.91 32694.58,17986.00 32698.83,17986.49 32702.52,17985.39 32705.67,17982.70"/>
    </edge>
    <edge id=":1184_10" function="internal">
        <lane id=":1184_10_0" index="0" speed="7.53" length="20.87" shape="32689.79,17983.91 32695.37,17987.88 32696.89,17991.12 32694.35,17993.65 32687.75,17995.46"/>
    </edge>
    <edge id=":1184_11" function="internal">
        <lane id=":1184_11_0" index="0" speed="3.65" length="1.44" shape="32689.79,17983.91 32690.44,17985.20"/>
    </edge>
    <edge id=":1184_18" function="internal">
        <lane id=":1184_18_0" index="0" speed="3.65" length="3.23" shape="32690.44,17985.20 32690.39,17986.09 32689.65,17986.59 32688.21,17986.70"/>
    </edge>
    <edge id=":1184_12" function="internal">
        <lane id=":1184_12_0" index="0" speed="5.46" length="10.13" shape="32687.22,17992.30 32690.42,17991.42 32691.66,17990.20 32690.92,17988.62 32688.21,17986.70"/>
    </edge>
    <edge id=":1184_13" function="internal">
        <lane id=":1184_13_0" index="0" speed="8.39" length="16.59" shape="32687.22,17992.30 32691.94,17990.89 32694.98,17988.54 32696.34,17985.25 32696.02,17981.01"/>
    </edge>
    <edge id=":1184_14" function="internal">
        <lane id=":1184_14_0" index="0" speed="13.89" length="21.03" shape="32687.22,17992.30 32691.73,17990.99 32697.10,17988.64 32702.14,17985.71 32705.67,17982.70"/>
    </edge>
    <edge id=":1184_15" function="internal">
        <lane id=":1184_15_0" index="0" speed="3.65" length="1.31" shape="32687.22,17992.30 32688.41,17992.84"/>
    </edge>
    <edge id=":1184_19" function="internal">
        <lane id=":1184_19_0" index="0" speed="3.65" length="3.36" shape="32688.41,17992.84 32688.53,17992.89 32689.06,17993.61 32688.80,17994.47 32687.75,17995.46"/>
    </edge>
    <edge id=":1186_0" function="internal">
        <lane id=":1186_0_0" index="0" speed="13.10" length="14.00" shape="32399.88,16780.74 32398.99,16777.18 32397.89,16773.88 32396.25,16770.95 32393.73,16768.52"/>
    </edge>
    <edge id=":1186_1" function="internal">
        <lane id=":1186_1_0" index="0" speed="7.38" length="17.86" shape="32399.88,16780.74 32399.22,16775.25 32400.56,16772.12 32403.87,16771.34 32409.17,16772.91"/>
    </edge>
    <edge id=":1186_2" function="internal">
        <lane id=":1186_2_0" index="0" speed="3.65" length="1.44" shape="32399.88,16780.74 32400.37,16779.38"/>
    </edge>
    <edge id=":1186_9" function="internal">
        <lane id=":1186_9_0" index="0" speed="3.65" length="3.23" shape="32400.37,16779.38 32401.05,16778.80 32401.92,16779.00 32402.98,16779.97"/>
    </edge>
    <edge id=":1186_3" function="internal">
        <lane id=":1186_3_0" index="0" speed="5.55" length="9.42" shape="32407.88,16775.84 32405.09,16775.01 32403.34,16775.42 32402.64,16777.08 32402.98,16779.97"/>
    </edge>
    <edge id=":1186_4" function="internal">
        <lane id=":1186_4_0" index="0" speed="13.89" length="15.96" shape="32407.88,16775.84 32404.32,16774.25 32400.63,16772.50 32397.03,16770.59 32393.73,16768.52"/>
    </edge>
    <edge id=":1186_5" function="internal">
        <lane id=":1186_5_0" index="0" speed="3.65" length="1.44" shape="32407.88,16775.84 32407.11,16774.62"/>
    </edge>