<?xml version="1.0" encoding="UTF-8"?>

<!-- generated on 2025-05-10 11:25:26 by Eclipse SUMO netgenerate Version 1.22.0
<netgenerateConfiguration xmlns:xsi="http://www.w3.org/2001/XMLSchema-instance" xsi:noNamespaceSchemaLocation="http://sumo.dlr.de/xsd/netgenerateConfiguration.xsd">

    <random_network>
        <rand value="true"/>
        <rand.iterations value="62"/>
        <rand.max-distance value="300"/>
        <rand.min-distance value="200"/>
        <rand.min-angle value="90"/>
        <rand.neighbor-dist1 value="10"/>
        <rand.neighbor-dist2 value="40"/>
        <rand.neighbor-dist3 value="25"/>
        <rand.neighbor-dist4 value="25"/>
        <rand.neighbor-dist5 value="0"/>
        <rand.neighbor-dist6 value="0"/>
        <rand.grid value="true"/>
    </random_network>

    <output>
        <output-file value="evaluating_rand_20.net.xml"/>
    </output>

    <building_defaults>
        <default.lanenumber value="2"/>
    </building_defaults>

</netgenerateConfiguration>
-->

<net version="1.20" junctionCornerDetail="5" limitTurnSpeed="5.50" xmlns:xsi="http://www.w3.org/2001/XMLSchema-instance" xsi:noNamespaceSchemaLocation="http://sumo.dlr.de/xsd/net_file.xsd">

    <location netOffset="1600.00,800.00" convBoundary="0.00,0.00,2200.00,1800.00" origBoundary="-1600.00,-800.00,600.00,1000.00" projParameter="!"/>

    <edge id=":1_0" function="internal">
        <lane id=":1_0_0" index="0" speed="6.51" length="9.03" shape="1595.20,810.40 1594.85,807.95 1593.80,806.20 1592.05,805.15 1589.60,804.80"/>
    </edge>
    <edge id=":1_1" function="internal">
        <lane id=":1_1_0" index="0" speed="13.89" length="20.80" shape="1595.20,810.40 1595.20,789.60"/>
        <lane id=":1_1_1" index="1" speed="13.89" length="20.80" shape="1598.40,810.40 1598.40,789.60"/>
    </edge>
    <edge id=":1_3" function="internal">
        <lane id=":1_3_0" index="0" speed="9.26" length="5.01" shape="1598.40,810.40 1599.11,805.44"/>
    </edge>
    <edge id=":1_4" function="internal">
        <lane id=":1_4_0" index="0" speed="3.65" length="1.44" shape="1598.40,810.40 1599.20,809.20"/>
    </edge>
    <edge id=":1_20" function="internal">
        <lane id=":1_20_0" index="0" speed="9.26" length="14.34" shape="1599.11,805.44 1599.15,805.15 1601.40,801.40 1605.15,799.15 1610.40,798.40"/>
    </edge>
    <edge id=":1_21" function="internal">
        <lane id=":1_21_0" index="0" speed="3.65" length="3.23" shape="1599.20,809.20 1600.00,808.80 1600.80,809.20 1601.60,810.40"/>
    </edge>
    <edge id=":1_5" function="internal">
        <lane id=":1_5_0" index="0" speed="6.51" length="9.03" shape="1610.40,804.80 1607.95,805.15 1606.20,806.20 1605.15,807.95 1604.80,810.40"/>
    </edge>
    <edge id=":1_6" function="internal">
        <lane id=":1_6_0" index="0" speed="13.89" length="20.80" shape="1610.40,804.80 1589.60,804.80"/>
        <lane id=":1_6_1" index="1" speed="13.89" length="20.80" shape="1610.40,801.60 1589.60,801.60"/>
    </edge>
    <edge id=":1_8" function="internal">
        <lane id=":1_8_0" index="0" speed="9.26" length="19.35" shape="1610.40,801.60 1605.15,800.85 1601.40,798.60 1599.15,794.85 1598.40,789.60"/>
    </edge>
    <edge id=":1_9" function="internal">
        <lane id=":1_9_0" index="0" speed="3.65" length="4.67" shape="1610.40,801.60 1609.20,800.80 1608.80,800.00 1609.20,799.20 1610.40,798.40"/>
    </edge>
    <edge id=":1_10" function="internal">
        <lane id=":1_10_0" index="0" speed="6.51" length="9.03" shape="1604.80,789.60 1605.15,792.05 1606.20,793.80 1607.95,794.85 1610.40,795.20"/>
    </edge>
    <edge id=":1_11" function="internal">
        <lane id=":1_11_0" index="0" speed="13.89" length="20.80" shape="1604.80,789.60 1604.80,810.40"/>
        <lane id=":1_11_1" index="1" speed="13.89" length="20.80" shape="1601.60,789.60 1601.60,810.40"/>
    </edge>
    <edge id=":1_13" function="internal">
        <lane id=":1_13_0" index="0" speed="9.26" length="5.01" shape="1601.60,789.60 1600.89,794.56"/>
    </edge>
    <edge id=":1_14" function="internal">
        <lane id=":1_14_0" index="0" speed="3.65" length="1.44" shape="1601.60,789.60 1600.80,790.80"/>
    </edge>
    <edge id=":1_22" function="internal">
        <lane id=":1_22_0" index="0" speed="9.26" length="14.34" shape="1600.89,794.56 1600.85,794.85 1598.60,798.60 1594.85,800.85 1589.60,801.60"/>
    </edge>
    <edge id=":1_23" function="internal">
        <lane id=":1_23_0" index="0" speed="3.65" length="3.23" shape="1600.80,790.80 1600.00,791.20 1599.20,790.80 1598.40,789.60"/>
    </edge>
    <edge id=":1_15" function="internal">
        <lane id=":1_15_0" index="0" speed="6.51" length="9.03" shape="1589.60,795.20 1592.05,794.85 1593.80,793.80 1594.85,792.05 1595.20,789.60"/>
    </edge>
    <edge id=":1_16" function="internal">
        <lane id=":1_16_0" index="0" speed="13.89" length="20.80" shape="1589.60,795.20 1610.40,795.20"/>
        <lane id=":1_16_1" index="1" speed="13.89" length="20.80" shape="1589.60,798.40 1610.40,798.40"/>
    </edge>
    <edge id=":1_18" function="internal">
        <lane id=":1_18_0" index="0" speed="9.26" length="19.35" shape="1589.60,798.40 1594.85,799.15 1598.60,801.40 1600.85,805.15 1601.60,810.40"/>
    </edge>
    <edge id=":1_19" function="internal">
        <lane id=":1_19_0" index="0" speed="3.65" length="4.67" shape="1589.60,798.40 1590.80,799.20 1591.20,800.00 1590.80,800.80 1589.60,801.60"/>
    </edge>
    <edge id=":10_0" function="internal">
        <lane id=":10_0_0" index="0" speed="13.89" length="20.80" shape="1410.40,804.80 1389.60,804.80"/>
        <lane id=":10_0_1" index="1" speed="13.89" length="20.80" shape="1410.40,801.60 1389.60,801.60"/>
    </edge>
    <edge id=":10_2" function="internal">
        <lane id=":10_2_0" index="0" speed="9.26" length="5.01" shape="1410.40,801.60 1405.44,800.89"/>
    </edge>
    <edge id=":10_3" function="internal">
        <lane id=":10_3_0" index="0" speed="3.65" length="1.44" shape="1410.40,801.60 1409.20,800.80"/>
    </edge>
    <edge id=":10_11" function="internal">
        <lane id=":10_11_0" index="0" speed="9.26" length="14.34" shape="1405.44,800.89 1405.15,800.85 1401.40,798.60 1399.15,794.85 1398.40,789.60"/>
    </edge>
    <edge id=":10_12" function="internal">
        <lane id=":10_12_0" index="0" speed="3.65" length="3.23" shape="1409.20,800.80 1408.80,800.00 1409.20,799.20 1410.40,798.40"/>
    </edge>
    <edge id=":10_4" function="internal">
        <lane id=":10_4_0" index="0" speed="6.51" length="9.03" shape="1404.80,789.60 1405.15,792.05 1406.20,793.80 1407.95,794.85 1410.40,795.20"/>
    </edge>
    <edge id=":10_5" function="internal">
        <lane id=":10_5_0" index="0" speed="9.26" length="19.35" shape="1401.60,789.60 1400.85,794.85 1398.60,798.60 1394.85,800.85 1389.60,801.60"/>
    </edge>
    <edge id=":10_6" function="internal">
        <lane id=":10_6_0" index="0" speed="3.65" length="4.67" shape="1401.60,789.60 1400.80,790.80 1400.00,791.20 1399.20,790.80 1398.40,789.60"/>
    </edge>
    <edge id=":10_7" function="internal">
        <lane id=":10_7_0" index="0" speed="6.51" length="9.03" shape="1389.60,795.20 1392.05,794.85 1393.80,793.80 1394.85,792.05 1395.20,789.60"/>
    </edge>
    <edge id=":10_8" function="internal">
        <lane id=":10_8_0" index="0" speed="13.89" length="20.80" shape="1389.60,795.20 1410.40,795.20"/>
        <lane id=":10_8_1" index="1" speed="13.89" length="20.80" shape="1389.60,798.40 1410.40,798.40"/>
    </edge>
    <edge id=":10_10" function="internal">
        <lane id=":10_10_0" index="0" speed="3.65" length="1.44" shape="1389.60,798.40 1390.80,799.20"/>
    </edge>
    <edge id=":10_13" function="internal">
        <lane id=":10_13_0" index="0" speed="3.65" length="3.23" shape="1390.80,799.20 1391.20,800.00 1390.80,800.80 1389.60,801.60"/>
    </edge>
    <edge id=":101_0" function="internal">
        <lane id=":101_0_0" index="0" speed="9.84" length="8.80" shape="598.48,1005.27 597.05,1003.54 596.02,1001.65 595.41,999.58 595.20,997.35"/>
        <lane id=":101_0_1" index="1" speed="8.39" length="6.28" shape="600.74,1003.01 599.72,1001.77 598.99,1000.42 598.55,998.95 598.40,997.35"/>
    </edge>
    <edge id=":101_2" function="internal">
        <lane id=":101_2_0" index="0" speed="4.20" length="1.26" shape="604.80,997.35 604.83,997.67 604.92,997.96 605.06,998.23 605.27,998.48"/>
        <lane id=":101_2_1" index="1" speed="6.63" length="3.77" shape="601.60,997.35 601.69,998.31 601.95,999.19 602.39,1000.00 603.01,1000.74"/>
    </edge>
    <edge id=":103_0" function="internal">
        <lane id=":103_0_0" index="0" speed="3.90" length="2.58" shape="1195.20,1206.40 1195.10,1205.70 1194.80,1205.20 1194.30,1204.90 1193.60,1204.80"/>
        <lane id=":103_0_1" index="1" speed="6.08" length="7.74" shape="1198.40,1206.40 1198.10,1204.30 1197.20,1202.80 1195.70,1201.90 1193.60,1201.60"/>
    </edge>
    <edge id=":103_2" function="internal">
        <lane id=":103_2_0" index="0" speed="8.96" length="18.06" shape="1193.60,1195.20 1198.50,1195.90 1202.00,1198.00 1204.10,1201.50 1204.80,1206.40"/>
        <lane id=":103_2_1" index="1" speed="7.66" length="12.90" shape="1193.60,1198.40 1197.10,1198.90 1199.60,1200.40 1201.10,1202.90 1201.60,1206.40"/>
    </edge>
    <edge id=":105_0" function="internal">
        <lane id=":105_0_0" index="0" speed="9.93" length="8.96" shape="802.65,1204.80 800.03,1204.71 798.22,1204.30 796.64,1203.31 794.73,1201.52"/>
        <lane id=":105_0_1" index="1" speed="8.39" length="6.28" shape="802.65,1201.60 801.05,1201.45 799.58,1201.01 798.23,1200.28 796.99,1199.26"/>
    </edge>
    <edge id=":105_2" function="internal">
        <lane id=":105_2_0" index="0" speed="4.22" length="1.28" shape="801.52,1194.73 801.79,1194.99 802.02,1195.13 802.28,1195.19 802.65,1195.20"/>
        <lane id=":105_2_1" index="1" speed="6.63" length="3.77" shape="799.26,1196.99 800.00,1197.61 800.81,1198.05 801.69,1198.31 802.65,1198.40"/>
    </edge>
    <edge id=":113_0" function="internal">
        <lane id=":113_0_0" index="0" speed="6.51" length="9.03" shape="1195.20,1410.40 1194.85,1407.95 1193.80,1406.20 1192.05,1405.15 1189.60,1404.80"/>
    </edge>
    <edge id=":113_1" function="internal">
        <lane id=":113_1_0" index="0" speed="13.89" length="20.80" shape="1195.20,1410.40 1195.20,1389.60"/>
        <lane id=":113_1_1" index="1" speed="13.89" length="20.80" shape="1198.40,1410.40 1198.40,1389.60"/>
    </edge>
    <edge id=":113_3" function="internal">
        <lane id=":113_3_0" index="0" speed="9.26" length="5.01" shape="1198.40,1410.40 1199.11,1405.44"/>
    </edge>
    <edge id=":113_4" function="internal">
        <lane id=":113_4_0" index="0" speed="3.65" length="1.44" shape="1198.40,1410.40 1199.20,1409.20"/>
    </edge>
    <edge id=":113_20" function="internal">
        <lane id=":113_20_0" index="0" speed="9.26" length="14.34" shape="1199.11,1405.44 1199.15,1405.15 1201.40,1401.40 1205.15,1399.15 1210.40,1398.40"/>
    </edge>
    <edge id=":113_21" function="internal">
        <lane id=":113_21_0" index="0" speed="3.65" length="3.23" shape="1199.20,1409.20 1200.00,1408.80 1200.80,1409.20 1201.60,1410.40"/>
    </edge>
    <edge id=":113_5" function="internal">
        <lane id=":113_5_0" index="0" speed="6.51" length="9.03" shape="1210.40,1404.80 1207.95,1405.15 1206.20,1406.20 1205.15,1407.95 1204.80,1410.40"/>
    </edge>
    <edge id=":113_6" function="internal">
        <lane id=":113_6_0" index="0" speed="13.89" length="20.80" shape="1210.40,1404.80 1189.60,1404.80"/>
        <lane id=":113_6_1" index="1" speed="13.89" length="20.80" shape="1210.40,1401.60 1189.60,1401.60"/>
    </edge>
    <edge id=":113_8" function="internal">
        <lane id=":113_8_0" index="0" speed="9.26" length="19.35" shape="1210.40,1401.60 1205.15,1400.85 1201.40,1398.60 1199.15,1394.85 1198.40,1389.60"/>
    </edge>
    <edge id=":113_9" function="internal">
        <lane id=":113_9_0" index="0" speed="3.65" length="4.67" shape="1210.40,1401.60 1209.20,1400.80 1208.80,1400.00 1209.20,1399.20 1210.40,1398.40"/>
    </edge>
    <edge id=":113_10" function="internal">
        <lane id=":113_10_0" index="0" speed="6.51" length="9.03" shape="1204.80,1389.60 1205.15,1392.05 1206.20,1393.80 1207.95,1394.85 1210.40,1395.20"/>
    </edge>
    <edge id=":113_11" function="internal">
        <lane id=":113_11_0" index="0" speed="13.89" length="20.80" shape="1204.80,1389.60 1204.80,1410.40"/>
        <lane id=":113_11_1" index="1" speed="13.89" length="20.80" shape="1201.60,1389.60 1201.60,1410.40"/>
    </edge>
    <edge id=":113_13" function="internal">
        <lane id=":113_13_0" index="0" speed="9.26" length="5.01" shape="1201.60,1389.60 1200.89,1394.56"/>
    </edge>
    <edge id=":113_14" function="internal">
        <lane id=":113_14_0" index="0" speed="3.65" length="1.44" shape="1201.60,1389.60 1200.80,1390.80"/>
    </edge>
    <edge id=":113_22" function="internal">
        <lane id=":113_22_0" index="0" speed="9.26" length="14.34" shape="1200.89,1394.56 1200.85,1394.85 1198.60,1398.60 1194.85,1400.85 1189.60,1401.60"/>
    </edge>
    <edge id=":113_23" function="internal">
        <lane id=":113_23_0" index="0" speed="3.65" length="3.23" shape="1200.80,1390.80 1200.00,1391.20 1199.20,1390.80 1198.40,1389.60"/>
    </edge>
    <edge id=":113_15" function="internal">
        <lane id=":113_15_0" index="0" speed="6.51" length="9.03" shape="1189.60,1395.20 1192.05,1394.85 1193.80,1393.80 1194.85,1392.05 1195.20,1389.60"/>
    </edge>
    <edge id=":113_16" function="internal">
        <lane id=":113_16_0" index="0" speed="13.89" length="20.80" shape="1189.60,1395.20 1210.40,1395.20"/>
        <lane id=":113_16_1" index="1" speed="13.89" length="20.80" shape="1189.60,1398.40 1210.40,1398.40"/>
    </edge>
    <edge id=":113_18" function="internal">
        <lane id=":113_18_0" index="0" speed="9.26" length="19.35" shape="1189.60,1398.40 1194.85,1399.15 1198.60,1401.40 1200.85,1405.15 1201.60,1410.40"/>
    </edge>
    <edge id=":113_19" function="internal">
        <lane id=":113_19_0" index="0" speed="3.65" length="4.67" shape="1189.60,1398.40 1190.80,1399.20 1191.20,1400.00 1190.80,1400.80 1189.60,1401.60"/>
    </edge>
    <edge id=":120_0" function="internal">
        <lane id=":120_0_0" index="0" speed="6.51" length="9.03" shape="995.20,1410.40 994.85,1407.95 993.80,1406.20 992.05,1405.15 989.60,1404.80"/>
    </edge>
    <edge id=":120_1" function="internal">
        <lane id=":120_1_0" index="0" speed="9.26" length="19.35" shape="998.40,1410.40 999.15,1405.15 1001.40,1401.40 1005.15,1399.15 1010.40,1398.40"/>
    </edge>
    <edge id=":120_2" function="internal">
        <lane id=":120_2_0" index="0" speed="3.65" length="4.67" shape="998.40,1410.40 999.20,1409.20 1000.00,1408.80 1000.80,1409.20 1001.60,1410.40"/>
    </edge>
    <edge id=":120_3" function="internal">
        <lane id=":120_3_0" index="0" speed="6.51" length="9.03" shape="1010.40,1404.80 1007.95,1405.15 1006.20,1406.20 1005.15,1407.95 1004.80,1410.40"/>
    </edge>
    <edge id=":120_4" function="internal">
        <lane id=":120_4_0" index="0" speed="13.89" length="20.80" shape="1010.40,1404.80 989.60,1404.80"/>
        <lane id=":120_4_1" index="1" speed="13.89" length="20.80" shape="1010.40,1401.60 989.60,1401.60"/>
    </edge>
    <edge id=":120_6" function="internal">
        <lane id=":120_6_0" index="0" speed="3.65" length="1.44" shape="1010.40,1401.60 1009.20,1400.80"/>
    </edge>
    <edge id=":120_11" function="internal">
        <lane id=":120_11_0" index="0" speed="3.65" length="3.23" shape="1009.20,1400.80 1008.80,1400.00 1009.20,1399.20 1010.40,1398.40"/>
    </edge>
    <edge id=":120_7" function="internal">
        <lane id=":120_7_0" index="0" speed="13.89" length="20.80" shape="989.60,1395.20 1010.40,1395.20"/>
        <lane id=":120_7_1" index="1" speed="13.89" length="20.80" shape="989.60,1398.40 1010.40,1398.40"/>
    </edge>
    <edge id=":120_9" function="internal">
        <lane id=":120_9_0" index="0" speed="9.26" length="5.01" shape="989.60,1398.40 994.56,1399.11"/>
    </edge>
    <edge id=":120_10" function="internal">
        <lane id=":120_10_0" index="0" speed="3.65" length="1.44" shape="989.60,1398.40 990.80,1399.20"/>
    </edge>
    <edge id=":120_12" function="internal">
        <lane id=":120_12_0" index="0" speed="9.26" length="14.34" shape="994.56,1399.11 994.85,1399.15 998.60,1401.40 1000.85,1405.15 1001.60,1410.40"/>
    </edge>
    <edge id=":120_13" function="internal">
        <lane id=":120_13_0" index="0" speed="3.65" length="3.23" shape="990.80,1399.20 991.20,1400.00 990.80,1400.80 989.60,1401.60"/>
    </edge>
    <edge id=":124_0" function="internal">
        <lane id=":124_0_0" index="0" speed="3.90" length="2.58" shape="1395.20,1406.40 1395.10,1405.70 1394.80,1405.20 1394.30,1404.90 1393.60,1404.80"/>
        <lane id=":124_0_1" index="1" speed="6.08" length="7.74" shape="1398.40,1406.40 1398.10,1404.30 1397.20,1402.80 1395.70,1401.90 1393.60,1401.60"/>
    </edge>
    <edge id=":124_2" function="internal">
        <lane id=":124_2_0" index="0" speed="8.96" length="18.06" shape="1393.60,1395.20 1398.50,1395.90 1402.00,1398.00 1404.10,1401.50 1404.80,1406.40"/>
        <lane id=":124_2_1" index="1" speed="7.66" length="12.90" shape="1393.60,1398.40 1397.10,1398.90 1399.60,1400.40 1401.10,1402.90 1401.60,1406.40"/>
    </edge>
    <edge id=":128_0" function="internal">
        <lane id=":128_0_0" index="0" speed="13.89" length="20.80" shape="1195.20,1610.40 1195.20,1589.60"/>
        <lane id=":128_0_1" index="1" speed="13.89" length="20.80" shape="1198.40,1610.40 1198.40,1589.60"/>
    </edge>
    <edge id=":128_2" function="internal">
        <lane id=":128_2_0" index="0" speed="9.26" length="5.01" shape="1198.40,1610.40 1199.11,1605.44"/>
    </edge>
    <edge id=":128_3" function="internal">
        <lane id=":128_3_0" index="0" speed="3.65" length="1.44" shape="1198.40,1610.40 1199.20,1609.20"/>
    </edge>
    <edge id=":128_11" function="internal">
        <lane id=":128_11_0" index="0" speed="9.26" length="14.34" shape="1199.11,1605.44 1199.15,1605.15 1201.40,1601.40 1205.15,1599.15 1210.40,1598.40"/>
    </edge>
    <edge id=":128_12" function="internal">
        <lane id=":128_12_0" index="0" speed="3.65" length="3.23" shape="1199.20,1609.20 1200.00,1608.80 1200.80,1609.20 1201.60,1610.40"/>
    </edge>
    <edge id=":128_4" function="internal">
        <lane id=":128_4_0" index="0" speed="6.51" length="9.03" shape="1210.40,1604.80 1207.95,1605.15 1206.20,1606.20 1205.15,1607.95 1204.80,1610.40"/>
    </edge>
    <edge id=":128_5" function="internal">
        <lane id=":128_5_0" index="0" speed="9.26" length="19.35" shape="1210.40,1601.60 1205.15,1600.85 1201.40,1598.60 1199.15,1594.85 1198.40,1589.60"/>
    </edge>
    <edge id=":128_6" function="internal">
        <lane id=":128_6_0" index="0" speed="3.65" length="4.67" shape="1210.40,1601.60 1209.20,1600.80 1208.80,1600.00 1209.20,1599.20 1210.40,1598.40"/>
    </edge>
    <edge id=":128_7" function="internal">
        <lane id=":128_7_0" index="0" speed="6.51" length="9.03" shape="1204.80,1589.60 1205.15,1592.05 1206.20,1593.80 1207.95,1594.85 1210.40,1595.20"/>
    </edge>
    <edge id=":128_8" function="internal">
        <lane id=":128_8_0" index="0" speed="13.89" length="20.80" shape="1204.80,1589.60 1204.80,1610.40"/>
        <lane id=":128_8_1" index="1" speed="13.89" length="20.80" shape="1201.60,1589.60 1201.60,1610.40"/>
    </edge>
    <edge id=":128_10" function="internal">
        <lane id=":128_10_0" index="0" speed="3.65" length="1.44" shape="1201.60,1589.60 1200.80,1590.80"/>
    </edge>
    <edge id=":128_13" function="internal">
        <lane id=":128_13_0" index="0" speed="3.65" length="3.23" shape="1200.80,1590.80 1200.00,1591.20 1199.20,1590.80 1198.40,1589.60"/>
    </edge>
    <edge id=":14_0" function="internal">
        <lane id=":14_0_0" index="0" speed="8.96" length="18.06" shape="1606.40,1004.80 1601.50,1004.10 1598.00,1002.00 1595.90,998.50 1595.20,993.60"/>
        <lane id=":14_0_1" index="1" speed="7.66" length="12.90" shape="1606.40,1001.60 1602.90,1001.10 1600.40,999.60 1598.90,997.10 1598.40,993.60"/>
    </edge>
    <edge id=":14_2" function="internal">
        <lane id=":14_2_0" index="0" speed="3.90" length="2.58" shape="1604.80,993.60 1604.90,994.30 1605.20,994.80 1605.70,995.10 1606.40,995.20"/>
        <lane id=":14_2_1" index="1" speed="6.08" length="7.74" shape="1601.60,993.60 1601.90,995.70 1602.80,997.20 1604.30,998.10 1606.40,998.40"/>
    </edge>
    <edge id=":177_0" function="internal">
        <lane id=":177_0_0" index="0" speed="6.51" length="9.03" shape="1395.20,1610.40 1394.85,1607.95 1393.80,1606.20 1392.05,1605.15 1389.60,1604.80"/>
    </edge>
    <edge id=":177_1" function="internal">
        <lane id=":177_1_0" index="0" speed="13.89" length="20.80" shape="1395.20,1610.40 1395.20,1589.60"/>
        <lane id=":177_1_1" index="1" speed="13.89" length="20.80" shape="1398.40,1610.40 1398.40,1589.60"/>
    </edge>
    <edge id=":177_3" function="internal">
        <lane id=":177_3_0" index="0" speed="9.26" length="5.01" shape="1398.40,1610.40 1399.11,1605.44"/>
    </edge>
    <edge id=":177_4" function="internal">
        <lane id=":177_4_0" index="0" speed="3.65" length="1.44" shape="1398.40,1610.40 1399.20,1609.20"/>
    </edge>
    <edge id=":177_20" function="internal">
        <lane id=":177_20_0" index="0" speed="9.26" length="14.34" shape="1399.11,1605.44 1399.15,1605.15 1401.40,1601.40 1405.15,1599.15 1410.40,1598.40"/>
    </edge>
    <edge id=":177_21" function="internal">
        <lane id=":177_21_0" index="0" speed="3.65" length="3.23" shape="1399.20,1609.20 1400.00,1608.80 1400.80,1609.20 1401.60,1610.40"/>
    </edge>
    <edge id=":177_5" function="internal">
        <lane id=":177_5_0" index="0" speed="6.51" length="9.03" shape="1410.40,1604.80 1407.95,1605.15 1406.20,1606.20 1405.15,1607.95 1404.80,1610.40"/>
    </edge>
    <edge id=":177_6" function="internal">
        <lane id=":177_6_0" index="0" speed="13.89" length="20.80" shape="1410.40,1604.80 1389.60,1604.80"/>
        <lane id=":177_6_1" index="1" speed="13.89" length="20.80" shape="1410.40,1601.60 1389.60,1601.60"/>
    </edge>
    <edge id=":177_8" function="internal">
        <lane id=":177_8_0" index="0" speed="9.26" length="19.35" shape="1410.40,1601.60 1405.15,1600.85 1401.40,1598.60 1399.15,1594.85 1398.40,1589.60"/>
    </edge>
    <edge id=":177_9" function="internal">
        <lane id=":177_9_0" index="0" speed="3.65" length="4.67" shape="1410.40,1601.60 1409.20,1600.80 1408.80,1600.00 1409.20,1599.20 1410.40,1598.40"/>
    </edge>
    <edge id=":177_10" function="internal">
        <lane id=":177_10_0" index="0" speed="6.51" length="9.03" shape="1404.80,1589.60 1405.15,1592.05 1406.20,1593.80 1407.95,1594.85 1410.40,1595.20"/>
    </edge>
    <edge id=":177_11" function="internal">
        <lane id=":177_11_0" index="0" speed="13.89" length="20.80" shape="1404.80,1589.60 1404.80,1610.40"/>
        <lane id=":177_11_1" index="1" speed="13.89" length="20.80" shape="1401.60,1589.60 1401.60,1610.40"/>
    </edge>
    <edge id=":177_13" function="internal">
        <lane id=":177_13_0" index="0" speed="9.26" length="5.01" shape="1401.60,1589.60 1400.89,1594.56"/>
    </edge>
    <edge id=":177_14" function="internal">
        <lane id=":177_14_0" index="0" speed="3.65" length="1.44" shape="1401.60,1589.60 1400.80,1590.80"/>
    </edge>
    <edge id=":177_22" function="internal">
        <lane id=":177_22_0" index="0" speed="9.26" length="14.34" shape="1400.89,1594.56 1400.85,1594.85 1398.60,1598.60 1394.85,1600.85 1389.60,1601.60"/>
    </edge>
    <edge id=":177_23" function="internal">
        <lane id=":177_23_0" index="0" speed="3.65" length="3.23" shape="1400.80,1590.80 1400.00,1591.20 1399.20,1590.80 1398.40,1589.60"/>
    </edge>
    <edge id=":177_15" function="internal">
        <lane id=":177_15_0" index="0" speed="6.51" length="9.03" shape="1389.60,1595.20 1392.05,1594.85 1393.80,1593.80 1394.85,1592.05 1395.20,1589.60"/>
    </edge>
    <edge id=":177_16" function="internal">
        <lane id=":177_16_0" index="0" speed="13.89" length="20.80" shape="1389.60,1595.20 1410.40,1595.20"/>
        <lane id=":177_16_1" index="1" speed="13.89" length="20.80" shape="1389.60,1598.40 1410.40,1598.40"/>
    </edge>
    <edge id=":177_18" function="internal">
        <lane id=":177_18_0" index="0" speed="9.26" length="19.35" shape="1389.60,1598.40 1394.85,1599.15 1398.60,1601.40 1400.85,1605.15 1401.60,1610.40"/>
    </edge>
    <edge id=":177_19" function="internal">
        <lane id=":177_19_0" index="0" speed="3.65" length="4.67" shape="1389.60,1598.40 1390.80,1599.20 1391.20,1600.00 1390.80,1600.80 1389.60,1601.60"/>
    </edge>
    <edge id=":187_0" function="internal">
        <lane id=":187_0_0" index="0" speed="8.96" length="18.06" shape="1406.40,1804.80 1401.50,1804.10 1398.00,1802.00 1395.90,1798.50 1395.20,1793.60"/>
        <lane id=":187_0_1" index="1" speed="7.66" length="12.90" shape="1406.40,1801.60 1402.90,1801.10 1400.40,1799.60 1398.90,1797.10 1398.40,1793.60"/>
    </edge>
    <edge id=":187_2" function="internal">
        <lane id=":187_2_0" index="0" speed="3.90" length="2.58" shape="1404.80,1793.60 1404.90,1794.30 1405.20,1794.80 1405.70,1795.10 1406.40,1795.20"/>
        <lane id=":187_2_1" index="1" speed="6.08" length="7.74" shape="1401.60,1793.60 1401.90,1795.70 1402.80,1797.20 1404.30,1798.10 1406.40,1798.40"/>
    </edge>
    <edge id=":189_0" function="internal">
        <lane id=":189_0_0" index="0" speed="6.51" length="9.03" shape="1595.20,1610.40 1594.85,1607.95 1593.80,1606.20 1592.05,1605.15 1589.60,1604.80"/>
    </edge>
    <edge id=":189_1" function="internal">
        <lane id=":189_1_0" index="0" speed="9.26" length="19.35" shape="1598.40,1610.40 1599.15,1605.15 1601.40,1601.40 1605.15,1599.15 1610.40,1598.40"/>
    </edge>
    <edge id=":189_2" function="internal">
        <lane id=":189_2_0" index="0" speed="3.65" length="4.67" shape="1598.40,1610.40 1599.20,1609.20 1600.00,1608.80 1600.80,1609.20 1601.60,1610.40"/>
    </edge>
    <edge id=":189_3" function="internal">
        <lane id=":189_3_0" index="0" speed="6.51" length="9.03" shape="1610.40,1604.80 1607.95,1605.15 1606.20,1606.20 1605.15,1607.95 1604.80,1610.40"/>
    </edge>
    <edge id=":189_4" function="internal">
        <lane id=":189_4_0" index="0" speed="13.89" length="20.80" shape="1610.40,1604.80 1589.60,1604.80"/>
        <lane id=":189_4_1" index="1" speed="13.89" length="20.80" shape="1610.40,1601.60 1589.60,1601.60"/>
    </edge>
    <edge id=":189_6" function="internal">
        <lane id=":189_6_0" index="0" speed="3.65" length="1.44" shape="1610.40,1601.60 1609.20,1600.80"/>
    </edge>
    <edge id=":189_11" function="internal">
        <lane id=":189_11_0" index="0" speed="3.65" length="3.23" shape="1609.20,1600.80 1608.80,1600.00 1609.20,1599.20 1610.40,1598.40"/>
    </edge>
    <edge id=":189_7" function="internal">
        <lane id=":189_7_0" index="0" speed="13.89" length="20.80" shape="1589.60,1595.20 1610.40,1595.20"/>
        <lane id=":189_7_1" index="1" speed="13.89" length="20.80" shape="1589.60,1598.40 1610.40,1598.40"/>
    </edge>
    <edge id=":189_9" function="internal">
        <lane id=":189_9_0" index="0" speed="9.26" length="5.01" shape="1589.60,1598.40 1594.56,1599.11"/>
    </edge>
    <edge id=":189_10" function="internal">
        <lane id=":189_10_0" index="0" speed="3.65" length="1.44" shape="1589.60,1598.40 1590.80,1599.20"/>
    </edge>
    <edge id=":189_12" function="internal">
        <lane id=":189_12_0" index="0" speed="9.26" length="14.34" shape="1594.56,1599.11 1594.85,1599.15 1598.60,1601.40 1600.85,1605.15 1601.60,1610.40"/>
    </edge>
    <edge id=":189_13" function="internal">
        <lane id=":189_13_0" index="0" speed="3.65" length="3.23" shape="1590.80,1599.20 1591.20,1600.00 1590.80,1600.80 1589.60,1601.60"/>
    </edge>
    <edge id=":2_0" function="internal">
        <lane id=":2_0_0" index="0" speed="13.89" length="0.10" shape="1595.20,600.00 1595.20,600.00"/>
        <lane id=":2_0_1" index="1" speed="13.89" length="0.10" shape="1598.40,600.00 1598.40,600.00"/>
    </edge>
    <edge id=":2_2" function="internal">
        <lane id=":2_2_0" index="0" speed="13.89" length="0.10" shape="1604.80,600.00 1604.80,600.00"/>
        <lane id=":2_2_1" index="1" speed="13.89" length="0.10" shape="1601.60,600.00 1601.60,600.00"/>
    </edge>
    <edge id=":203_0" function="internal">
        <lane id=":203_0_0" index="0" speed="13.89" length="0.10" shape="995.20,1600.00 995.20,1600.00"/>
        <lane id=":203_0_1" index="1" speed="13.89" length="0.10" shape="998.40,1600.00 998.40,1600.00"/>
    </edge>
    <edge id=":203_2" function="internal">
        <lane id=":203_2_0" index="0" speed="13.89" length="0.10" shape="1004.80,1600.00 1004.80,1600.00"/>
        <lane id=":203_2_1" index="1" speed="13.89" length="0.10" shape="1001.60,1600.00 1001.60,1600.00"/>
    </edge>
    <edge id=":211_0" function="internal">
        <lane id=":211_0_0" index="0" speed="6.51" length="9.03" shape="795.20,1410.40 794.85,1407.95 793.80,1406.20 792.05,1405.15 789.60,1404.80"/>
    </edge>
    <edge id=":211_1" function="internal">
        <lane id=":211_1_0" index="0" speed="9.26" length="19.35" shape="798.40,1410.40 799.15,1405.15 801.40,1401.40 805.15,1399.15 810.40,1398.40"/>
    </edge>
    <edge id=":211_2" function="internal">
        <lane id=":211_2_0" index="0" speed="3.65" length="4.67" shape="798.40,1410.40 799.20,1409.20 800.00,1408.80 800.80,1409.20 801.60,1410.40"/>
    </edge>
    <edge id=":211_3" function="internal">
        <lane id=":211_3_0" index="0" speed="6.51" length="9.03" shape="810.40,1404.80 807.95,1405.15 806.20,1406.20 805.15,1407.95 804.80,1410.40"/>
    </edge>