<?xml version="1.0" encoding="UTF-8"?>

<!-- generated on 2025-05-10 11:25:26 by Eclipse SUMO netgenerate Version 1.22.0
<netgenerateConfiguration xmlns:xsi="http://www.w3.org/2001/XMLSchema-instance" xsi:noNamespaceSchemaLocation="http://sumo.dlr.de/xsd/netgenerateConfiguration.xsd">

    <random_network>
        <rand value="true"/>
        <rand.iterations value="140"/>
        <rand.max-distance value="300"/>
        <rand.min-distance value="200"/>
        <rand.min-angle value="90"/>
        <rand.neighbor-dist1 value="10"/>
        <rand.neighbor-dist2 value="40"/>
        <rand.neighbor-dist3 value="25"/>
        <rand.neighbor-dist4 value="25"/>
        <rand.neighbor-dist5 value="0"/>
        <rand.neighbor-dist6 value="0"/>
        <rand.grid value="true"/>
    </random_network>

    <output>
        <output-file value="evaluating_rand_40.net.xml"/>
    </output>

    <building_defaults>
        <default.lanenumber value="2"/>
    </building_defaults>

</netgenerateConfiguration>
-->

<net version="1.20" junctionCornerDetail="5" limitTurnSpeed="5.50" xmlns:xsi="http://www.w3.org/2001/XMLSchema-instance" xsi:noNamespaceSchemaLocation="http://sumo.dlr.de/xsd/net_file.xsd">

    <location netOffset="2200.00,1600.00" convBoundary="0.00,0.00,3600.00,2600.00" origBoundary="-2200.00,-1600.00,1400.00,1000.00" projParameter="!"/>

    <edge id=":1_0" function="internal">
        <lane id=":1_0_0" index="0" speed="6.51" length="9.03" shape="2195.20,1610.40 2194.85,1607.95 2193.80,1606.20 2192.05,1605.15 2189.60,1604.80"/>
    </edge>
    <edge id=":1_1" function="internal">
        <lane id=":1_1_0" index="0" speed="13.89" length="20.80" shape="2195.20,1610.40 2195.20,1589.60"/>
        <lane id=":1_1_1" index="1" speed="13.89" length="20.80" shape="2198.40,1610.40 2198.40,1589.60"/>
    </edge>
    <edge id=":1_3" function="internal">
        <lane id=":1_3_0" index="0" speed="9.26" length="5.01" shape="2198.40,1610.40 2199.11,1605.44"/>
    </edge>
    <edge id=":1_4" function="internal">
        <lane id=":1_4_0" index="0" speed="3.65" length="1.44" shape="2198.40,1610.40 2199.20,1609.20"/>
    </edge>
    <edge id=":1_20" function="internal">
        <lane id=":1_20_0" index="0" speed="9.26" length="14.34" shape="2199.11,1605.44 2199.15,1605.15 2201.40,1601.40 2205.15,1599.15 2210.40,1598.40"/>
    </edge>
    <edge id=":1_21" function="internal">
        <lane id=":1_21_0" index="0" speed="3.65" length="3.23" shape="2199.20,1609.20 2200.00,1608.80 2200.80,1609.20 2201.60,1610.40"/>
    </edge>
    <edge id=":1_5" function="internal">
        <lane id=":1_5_0" index="0" speed="6.51" length="9.03" shape="2210.40,1604.80 2207.95,1605.15 2206.20,1606.20 2205.15,1607.95 2204.80,1610.40"/>
    </edge>
    <edge id=":1_6" function="internal">
        <lane id=":1_6_0" index="0" speed="13.89" length="20.80" shape="2210.40,1604.80 2189.60,1604.80"/>
        <lane id=":1_6_1" index="1" speed="13.89" length="20.80" shape="2210.40,1601.60 2189.60,1601.60"/>
    </edge>
    <edge id=":1_8" function="internal">
        <lane id=":1_8_0" index="0" speed="9.26" length="19.35" shape="2210.40,1601.60 2205.15,1600.85 2201.40,1598.60 2199.15,1594.85 2198.40,1589.60"/>
    </edge>
    <edge id=":1_9" function="internal">
        <lane id=":1_9_0" index="0" speed="3.65" length="4.67" shape="2210.40,1601.60 2209.20,1600.80 2208.80,1600.00 2209.20,1599.20 2210.40,1598.40"/>
    </edge>
    <edge id=":1_10" function="internal">
        <lane id=":1_10_0" index="0" speed="6.51" length="9.03" shape="2204.80,1589.60 2205.15,1592.05 2206.20,1593.80 2207.95,1594.85 2210.40,1595.20"/>
    </edge>
    <edge id=":1_11" function="internal">
        <lane id=":1_11_0" index="0" speed="13.89" length="20.80" shape="2204.80,1589.60 2204.80,1610.40"/>
        <lane id=":1_11_1" index="1" speed="13.89" length="20.80" shape="2201.60,1589.60 2201.60,1610.40"/>
    </edge>
    <edge id=":1_13" function="internal">
        <lane id=":1_13_0" index="0" speed="9.26" length="5.01" shape="2201.60,1589.60 2200.89,1594.56"/>
    </edge>
    <edge id=":1_14" function="internal">
        <lane id=":1_14_0" index="0" speed="3.65" length="1.44" shape="2201.60,1589.60 2200.80,1590.80"/>
    </edge>
    <edge id=":1_22" function="internal">
        <lane id=":1_22_0" index="0" speed="9.26" length="14.34" shape="2200.89,1594.56 2200.85,1594.85 2198.60,1598.60 2194.85,1600.85 2189.60,1601.60"/>
    </edge>
    <edge id=":1_23" function="internal">
        <lane id=":1_23_0" index="0" speed="3.65" length="3.23" shape="2200.80,1590.80 2200.00,1591.20 2199.20,1590.80 2198.40,1589.60"/>
    </edge>
    <edge id=":1_15" function="internal">
        <lane id=":1_15_0" index="0" speed="6.51" length="9.03" shape="2189.60,1595.20 2192.05,1594.85 2193.80,1593.80 2194.85,1592.05 2195.20,1589.60"/>
    </edge>
    <edge id=":1_16" function="internal">
        <lane id=":1_16_0" index="0" speed="13.89" length="20.80" shape="2189.60,1595.20 2210.40,1595.20"/>
        <lane id=":1_16_1" index="1" speed="13.89" length="20.80" shape="2189.60,1598.40 2210.40,1598.40"/>
    </edge>
    <edge id=":1_18" function="internal">
        <lane id=":1_18_0" index="0" speed="9.26" length="19.35" shape="2189.60,1598.40 2194.85,1599.15 2198.60,1601.40 2200.85,1605.15 2201.60,1610.40"/>
    </edge>
    <edge id=":1_19" function="internal">
        <lane id=":1_19_0" index="0" speed="3.65" length="4.67" shape="2189.60,1598.40 2190.80,1599.20 2191.20,1600.00 2190.80,1600.80 2189.60,1601.60"/>
    </edge>
    <edge id=":10_0" function="internal">
        <lane id=":10_0_0" index="0" speed="13.89" length="20.80" shape="2010.40,1604.80 1989.60,1604.80"/>
        <lane id=":10_0_1" index="1" speed="13.89" length="20.80" shape="2010.40,1601.60 1989.60,1601.60"/>
    </edge>
    <edge id=":10_2" function="internal">
        <lane id=":10_2_0" index="0" speed="9.26" length="5.01" shape="2010.40,1601.60 2005.44,1600.89"/>
    </edge>
    <edge id=":10_3" function="internal">
        <lane id=":10_3_0" index="0" speed="3.65" length="1.44" shape="2010.40,1601.60 2009.20,1600.80"/>
    </edge>
    <edge id=":10_11" function="internal">
        <lane id=":10_11_0" index="0" speed="9.26" length="14.34" shape="2005.44,1600.89 2005.15,1600.85 2001.40,1598.60 1999.15,1594.85 1998.40,1589.60"/>
    </edge>
    <edge id=":10_12" function="internal">
        <lane id=":10_12_0" index="0" speed="3.65" length="3.23" shape="2009.20,1600.80 2008.80,1600.00 2009.20,1599.20 2010.40,1598.40"/>
    </edge>
    <edge id=":10_4" function="internal">
        <lane id=":10_4_0" index="0" speed="6.51" length="9.03" shape="2004.80,1589.60 2005.15,1592.05 2006.20,1593.80 2007.95,1594.85 2010.40,1595.20"/>
    </edge>
    <edge id=":10_5" function="internal">
        <lane id=":10_5_0" index="0" speed="9.26" length="19.35" shape="2001.60,1589.60 2000.85,1594.85 1998.60,1598.60 1994.85,1600.85 1989.60,1601.60"/>
    </edge>
    <edge id=":10_6" function="internal">
        <lane id=":10_6_0" index="0" speed="3.65" length="4.67" shape="2001.60,1589.60 2000.80,1590.80 2000.00,1591.20 1999.20,1590.80 1998.40,1589.60"/>
    </edge>
    <edge id=":10_7" function="internal">
        <lane id=":10_7_0" index="0" speed="6.51" length="9.03" shape="1989.60,1595.20 1992.05,1594.85 1993.80,1593.80 1994.85,1592.05 1995.20,1589.60"/>
    </edge>
    <edge id=":10_8" function="internal">
        <lane id=":10_8_0" index="0" speed="13.89" length="20.80" shape="1989.60,1595.20 2010.40,1595.20"/>
        <lane id=":10_8_1" index="1" speed="13.89" length="20.80" shape="1989.60,1598.40 2010.40,1598.40"/>
    </edge>
    <edge id=":10_10" function="internal">
        <lane id=":10_10_0" index="0" speed="3.65" length="1.44" shape="1989.60,1598.40 1990.80,1599.20"/>
    </edge>
    <edge id=":10_13" function="internal">
        <lane id=":10_13_0" index="0" speed="3.65" length="3.23" shape="1990.80,1599.20 1991.20,1600.00 1990.80,1600.80 1989.60,1601.60"/>
    </edge>
    <edge id=":101_0" function="internal">
        <lane id=":101_0_0" index="0" speed="9.84" length="8.80" shape="1198.48,1805.27 1197.05,1803.54 1196.02,1801.65 1195.41,1799.58 1195.20,1797.35"/>
        <lane id=":101_0_1" index="1" speed="8.39" length="6.28" shape="1200.74,1803.01 1199.72,1801.77 1198.99,1800.42 1198.55,1798.95 1198.40,1797.35"/>
    </edge>
    <edge id=":101_2" function="internal">
        <lane id=":101_2_0" index="0" speed="4.20" length="1.26" shape="1204.80,1797.35 1204.83,1797.67 1204.92,1797.96 1205.06,1798.23 1205.27,1798.48"/>
        <lane id=":101_2_1" index="1" speed="6.63" length="3.77" shape="1201.60,1797.35 1201.69,1798.31 1201.95,1799.19 1202.39,1800.00 1203.01,1800.74"/>
    </edge>
    <edge id=":103_0" function="internal">
        <lane id=":103_0_0" index="0" speed="3.90" length="2.58" shape="1795.20,2006.40 1795.10,2005.70 1794.80,2005.20 1794.30,2004.90 1793.60,2004.80"/>
        <lane id=":103_0_1" index="1" speed="6.08" length="7.74" shape="1798.40,2006.40 1798.10,2004.30 1797.20,2002.80 1795.70,2001.90 1793.60,2001.60"/>
    </edge>
    <edge id=":103_2" function="internal">
        <lane id=":103_2_0" index="0" speed="8.96" length="18.06" shape="1793.60,1995.20 1798.50,1995.90 1802.00,1998.00 1804.10,2001.50 1804.80,2006.40"/>
        <lane id=":103_2_1" index="1" speed="7.66" length="12.90" shape="1793.60,1998.40 1797.10,1998.90 1799.60,2000.40 1801.10,2002.90 1801.60,2006.40"/>
    </edge>
    <edge id=":105_0" function="internal">
        <lane id=":105_0_0" index="0" speed="9.84" length="8.80" shape="1402.65,2004.80 1400.42,2004.59 1398.35,2003.98 1396.46,2002.95 1394.73,2001.52"/>
        <lane id=":105_0_1" index="1" speed="8.39" length="6.28" shape="1402.65,2001.60 1401.05,2001.45 1399.58,2001.01 1398.23,2000.28 1396.99,1999.26"/>
    </edge>
    <edge id=":105_2" function="internal">
        <lane id=":105_2_0" index="0" speed="4.20" length="1.26" shape="1401.52,1994.73 1401.77,1994.94 1402.04,1995.08 1402.33,1995.17 1402.65,1995.20"/>
        <lane id=":105_2_1" index="1" speed="6.63" length="3.77" shape="1399.26,1996.99 1400.00,1997.61 1400.81,1998.05 1401.69,1998.31 1402.65,1998.40"/>
    </edge>
    <edge id=":113_0" function="internal">
        <lane id=":113_0_0" index="0" speed="6.51" length="9.03" shape="1795.20,2210.40 1794.85,2207.95 1793.80,2206.20 1792.05,2205.15 1789.60,2204.80"/>
    </edge>
    <edge id=":113_1" function="internal">
        <lane id=":113_1_0" index="0" speed="13.89" length="20.80" shape="1795.20,2210.40 1795.20,2189.60"/>
        <lane id=":113_1_1" index="1" speed="13.89" length="20.80" shape="1798.40,2210.40 1798.40,2189.60"/>
    </edge>
    <edge id=":113_3" function="internal">
        <lane id=":113_3_0" index="0" speed="9.26" length="5.01" shape="1798.40,2210.40 1799.11,2205.44"/>
    </edge>
    <edge id=":113_4" function="internal">
        <lane id=":113_4_0" index="0" speed="3.65" length="1.44" shape="1798.40,2210.40 1799.20,2209.20"/>
    </edge>
    <edge id=":113_20" function="internal">
        <lane id=":113_20_0" index="0" speed="9.26" length="14.34" shape="1799.11,2205.44 1799.15,2205.15 1801.40,2201.40 1805.15,2199.15 1810.40,2198.40"/>
    </edge>
    <edge id=":113_21" function="internal">
        <lane id=":113_21_0" index="0" speed="3.65" length="3.23" shape="1799.20,2209.20 1800.00,2208.80 1800.80,2209.20 1801.60,2210.40"/>
    </edge>
    <edge id=":113_5" function="internal">
        <lane id=":113_5_0" index="0" speed="6.51" length="9.03" shape="1810.40,2204.80 1807.95,2205.15 1806.20,2206.20 1805.15,2207.95 1804.80,2210.40"/>
    </edge>
    <edge id=":113_6" function="internal">
        <lane id=":113_6_0" index="0" speed="13.89" length="20.80" shape="1810.40,2204.80 1789.60,2204.80"/>
        <lane id=":113_6_1" index="1" speed="13.89" length="20.80" shape="1810.40,2201.60 1789.60,2201.60"/>
    </edge>
    <edge id=":113_8" function="internal">
        <lane id=":113_8_0" index="0" speed="9.26" length="19.35" shape="1810.40,2201.60 1805.15,2200.85 1801.40,2198.60 1799.15,2194.85 1798.40,2189.60"/>
    </edge>
    <edge id=":113_9" function="internal">
        <lane id=":113_9_0" index="0" speed="3.65" length="4.67" shape="1810.40,2201.60 1809.20,2200.80 1808.80,2200.00 1809.20,2199.20 1810.40,2198.40"/>
    </edge>
    <edge id=":113_10" function="internal">
        <lane id=":113_10_0" index="0" speed="6.51" length="9.03" shape="1804.80,2189.60 1805.15,2192.05 1806.20,2193.80 1807.95,2194.85 1810.40,2195.20"/>
    </edge>
    <edge id=":113_11" function="internal">
        <lane id=":113_11_0" index="0" speed="13.89" length="20.80" shape="1804.80,2189.60 1804.80,2210.40"/>
        <lane id=":113_11_1" index="1" speed="13.89" length="20.80" shape="1801.60,2189.60 1801.60,2210.40"/>
    </edge>
    <edge id=":113_13" function="internal">
        <lane id=":113_13_0" index="0" speed="9.26" length="5.01" shape="1801.60,2189.60 1800.89,2194.56"/>
    </edge>
    <edge id=":113_14" function="internal">
        <lane id=":113_14_0" index="0" speed="3.65" length="1.44" shape="1801.60,2189.60 1800.80,2190.80"/>
    </edge>
    <edge id=":113_22" function="internal">
        <lane id=":113_22_0" index="0" speed="9.26" length="14.34" shape="1800.89,2194.56 1800.85,2194.85 1798.60,2198.60 1794.85,2200.85 1789.60,2201.60"/>
    </edge>
    <edge id=":113_23" function="internal">
        <lane id=":113_23_0" index="0" speed="3.65" length="3.23" shape="1800.80,2190.80 1800.00,2191.20 1799.20,2190.80 1798.40,2189.60"/>
    </edge>
    <edge id=":113_15" function="internal">
        <lane id=":113_15_0" index="0" speed="6.51" length="9.03" shape="1789.60,2195.20 1792.05,2194.85 1793.80,2193.80 1794.85,2192.05 1795.20,2189.60"/>
    </edge>
    <edge id=":113_16" function="internal">
        <lane id=":113_16_0" index="0" speed="13.89" length="20.80" shape="1789.60,2195.20 1810.40,2195.20"/>
        <lane id=":113_16_1" index="1" speed="13.89" length="20.80" shape="1789.60,2198.40 1810.40,2198.40"/>
    </edge>
    <edge id=":113_18" function="internal">
        <lane id=":113_18_0" index="0" speed="9.26" length="19.35" shape="1789.60,2198.40 1794.85,2199.15 1798.60,2201.40 1800.85,2205.15 1801.60,2210.40"/>
    </edge>
    <edge id=":113_19" function="internal">
        <lane id=":113_19_0" index="0" speed="3.65" length="4.67" shape="1789.60,2198.40 1790.80,2199.20 1791.20,2200.00 1790.80,2200.80 1789.60,2201.60"/>
    </edge>
    <edge id=":120_0" function="internal">
        <lane id=":120_0_0" index="0" speed="6.51" length="9.03" shape="1595.20,2210.40 1594.85,2207.95 1593.80,2206.20 1592.05,2205.15 1589.60,2204.80"/>
    </edge>
    <edge id=":120_1" function="internal">
        <lane id=":120_1_0" index="0" speed="9.26" length="19.35" shape="1598.40,2210.40 1599.15,2205.15 1601.40,2201.40 1605.15,2199.15 1610.40,2198.40"/>
    </edge>
    <edge id=":120_2" function="internal">
        <lane id=":120_2_0" index="0" speed="3.65" length="4.67" shape="1598.40,2210.40 1599.20,2209.20 1600.00,2208.80 1600.80,2209.20 1601.60,2210.40"/>
    </edge>
    <edge id=":120_3" function="internal">
        <lane id=":120_3_0" index="0" speed="6.51" length="9.03" shape="1610.40,2204.80 1607.95,2205.15 1606.20,2206.20 1605.15,2207.95 1604.80,2210.40"/>
    </edge>
    <edge id=":120_4" function="internal">
        <lane id=":120_4_0" index="0" speed="13.89" length="20.80" shape="1610.40,2204.80 1589.60,2204.80"/>
        <lane id=":120_4_1" index="1" speed="13.89" length="20.80" shape="1610.40,2201.60 1589.60,2201.60"/>
    </edge>
    <edge id=":120_6" function="internal">
        <lane id=":120_6_0" index="0" speed="3.65" length="1.44" shape="1610.40,2201.60 1609.20,2200.80"/>
    </edge>
    <edge id=":120_11" function="internal">
        <lane id=":120_11_0" index="0" speed="3.65" length="3.23" shape="1609.20,2200.80 1608.80,2200.00 1609.20,2199.20 1610.40,2198.40"/>
    </edge>
    <edge id=":120_7" function="internal">
        <lane id=":120_7_0" index="0" speed="13.89" length="20.80" shape="1589.60,2195.20 1610.40,2195.20"/>
        <lane id=":120_7_1" index="1" speed="13.89" length="20.80" shape="1589.60,2198.40 1610.40,2198.40"/>
    </edge>
    <edge id=":120_9" function="internal">
        <lane id=":120_9_0" index="0" speed="9.26" length="5.01" shape="1589.60,2198.40 1594.56,2199.11"/>
    </edge>
    <edge id=":120_10" function="internal">
        <lane id=":120_10_0" index="0" speed="3.65" length="1.44" shape="1589.60,2198.40 1590.80,2199.20"/>
    </edge>
    <edge id=":120_12" function="internal">
        <lane id=":120_12_0" index="0" speed="9.26" length="14.34" shape="1594.56,2199.11 1594.85,2199.15 1598.60,2201.40 1600.85,2205.15 1601.60,2210.40"/>
    </edge>
    <edge id=":120_13" function="internal">
        <lane id=":120_13_0" index="0" speed="3.65" length="3.23" shape="1590.80,2199.20 1591.20,2200.00 1590.80,2200.80 1589.60,2201.60"/>
    </edge>
    <edge id=":1219_0" function="internal">
        <lane id=":1219_0_0" index="0" speed="13.89" length="0.10" shape="2795.20,1400.00 2795.20,1400.00"/>
        <lane id=":1219_0_1" index="1" speed="13.89" length="0.10" shape="2798.40,1400.00 2798.40,1400.00"/>
    </edge>
    <edge id=":1219_2" function="internal">
        <lane id=":1219_2_0" index="0" speed="13.89" length="0.10" shape="2804.80,1400.00 2804.80,1400.00"/>
        <lane id=":1219_2_1" index="1" speed="13.89" length="0.10" shape="2801.60,1400.00 2801.60,1400.00"/>
    </edge>
    <edge id=":1221_0" function="internal">
        <lane id=":1221_0_0" index="0" speed="8.96" length="18.06" shape="1606.40,1004.80 1601.50,1004.10 1598.00,1002.00 1595.90,998.50 1595.20,993.60"/>
        <lane id=":1221_0_1" index="1" speed="7.66" length="12.90" shape="1606.40,1001.60 1602.90,1001.10 1600.40,999.60 1598.90,997.10 1598.40,993.60"/>
    </edge>
    <edge id=":1221_2" function="internal">
        <lane id=":1221_2_0" index="0" speed="3.90" length="2.58" shape="1604.80,993.60 1604.90,994.30 1605.20,994.80 1605.70,995.10 1606.40,995.20"/>
        <lane id=":1221_2_1" index="1" speed="6.08" length="7.74" shape="1601.60,993.60 1601.90,995.70 1602.80,997.20 1604.30,998.10 1606.40,998.40"/>
    </edge>
    <edge id=":1223_0" function="internal">
        <lane id=":1223_0_0" index="0" speed="13.89" length="0.10" shape="1795.20,800.00 1795.20,800.00"/>
        <lane id=":1223_0_1" index="1" speed="13.89" length="0.10" shape="1798.40,800.00 1798.40,800.00"/>
    </edge>
    <edge id=":1223_2" function="internal">
        <lane id=":1223_2_0" index="0" speed="13.89" length="0.10" shape="1804.80,800.00 1804.80,800.00"/>
        <lane id=":1223_2_1" index="1" speed="13.89" length="0.10" shape="1801.60,800.00 1801.60,800.00"/>
    </edge>
    <edge id=":124_0" function="internal">
        <lane id=":124_0_0" index="0" speed="3.90" length="2.58" shape="1995.20,2206.40 1995.10,2205.70 1994.80,2205.20 1994.30,2204.90 1993.60,2204.80"/>
        <lane id=":124_0_1" index="1" speed="6.08" length="7.74" shape="1998.40,2206.40 1998.10,2204.30 1997.20,2202.80 1995.70,2201.90 1993.60,2201.60"/>
    </edge>
    <edge id=":124_2" function="internal">
        <lane id=":124_2_0" index="0" speed="8.96" length="18.06" shape="1993.60,2195.20 1998.50,2195.90 2002.00,2198.00 2004.10,2201.50 2004.80,2206.40"/>
        <lane id=":124_2_1" index="1" speed="7.66" length="12.90" shape="1993.60,2198.40 1997.10,2198.90 1999.60,2200.40 2001.10,2202.90 2001.60,2206.40"/>
    </edge>
    <edge id=":128_0" function="internal">
        <lane id=":128_0_0" index="0" speed="13.89" length="20.80" shape="1795.20,2410.40 1795.20,2389.60"/>
        <lane id=":128_0_1" index="1" speed="13.89" length="20.80" shape="1798.40,2410.40 1798.40,2389.60"/>
    </edge>
    <edge id=":128_2" function="internal">
        <lane id=":128_2_0" index="0" speed="9.26" length="5.01" shape="1798.40,2410.40 1799.11,2405.44"/>
    </edge>
    <edge id=":128_3" function="internal">
        <lane id=":128_3_0" index="0" speed="3.65" length="1.44" shape="1798.40,2410.40 1799.20,2409.20"/>
    </edge>
    <edge id=":128_11" function="internal">
        <lane id=":128_11_0" index="0" speed="9.26" length="14.34" shape="1799.11,2405.44 1799.15,2405.15 1801.40,2401.40 1805.15,2399.15 1810.40,2398.40"/>
    </edge>
    <edge id=":128_12" function="internal">
        <lane id=":128_12_0" index="0" speed="3.65" length="3.23" shape="1799.20,2409.20 1800.00,2408.80 1800.80,2409.20 1801.60,2410.40"/>
    </edge>
    <edge id=":128_4" function="internal">
        <lane id=":128_4_0" index="0" speed="6.51" length="9.03" shape="1810.40,2404.80 1807.95,2405.15 1806.20,2406.20 1805.15,2407.95 1804.80,2410.40"/>
    </edge>
    <edge id=":128_5" function="internal">
        <lane id=":128_5_0" index="0" speed="9.26" length="19.35" shape="1810.40,2401.60 1805.15,2400.85 1801.40,2398.60 1799.15,2394.85 1798.40,2389.60"/>
    </edge>
    <edge id=":128_6" function="internal">
        <lane id=":128_6_0" index="0" speed="3.65" length="4.67" shape="1810.40,2401.60 1809.20,2400.80 1808.80,2400.00 1809.20,2399.20 1810.40,2398.40"/>
    </edge>
    <edge id=":128_7" function="internal">
        <lane id=":128_7_0" index="0" speed="6.51" length="9.03" shape="1804.80,2389.60 1805.15,2392.05 1806.20,2393.80 1807.95,2394.85 1810.40,2395.20"/>
    </edge>
    <edge id=":128_8" function="internal">
        <lane id=":128_8_0" index="0" speed="13.89" length="20.80" shape="1804.80,2389.60 1804.80,2410.40"/>
        <lane id=":128_8_1" index="1" speed="13.89" length="20.80" shape="1801.60,2389.60 1801.60,2410.40"/>
    </edge>
    <edge id=":128_10" function="internal">
        <lane id=":128_10_0" index="0" speed="3.65" length="1.44" shape="1801.60,2389.60 1800.80,2390.80"/>
    </edge>
    <edge id=":128_13" function="internal">
        <lane id=":128_13_0" index="0" speed="3.65" length="3.23" shape="1800.80,2390.80 1800.00,2391.20 1799.20,2390.80 1798.40,2389.60"/>
    </edge>
    <edge id=":1337_0" function="internal">
        <lane id=":1337_0_0" index="0" speed="13.89" length="0.10" shape="995.20,1600.00 995.20,1600.00"/>
        <lane id=":1337_0_1" index="1" speed="13.89" length="0.10" shape="998.40,1600.00 998.40,1600.00"/>
    </edge>
    <edge id=":1337_2" function="internal">
        <lane id=":1337_2_0" index="0" speed="13.89" length="0.10" shape="1004.80,1600.00 1004.80,1600.00"/>
        <lane id=":1337_2_1" index="1" speed="13.89" length="0.10" shape="1001.60,1600.00 1001.60,1600.00"/>
    </edge>
    <edge id=":14_0" function="internal">
        <lane id=":14_0_0" index="0" speed="8.96" length="18.06" shape="2206.40,1804.80 2201.50,1804.10 2198.00,1802.00 2195.90,1798.50 2195.20,1793.60"/>
        <lane id=":14_0_1" index="1" speed="7.66" length="12.90" shape="2206.40,1801.60 2202.90,1801.10 2200.40,1799.60 2198.90,1797.10 2198.40,1793.60"/>
    </edge>
    <edge id=":14_2" function="internal">
        <lane id=":14_2_0" index="0" speed="3.90" length="2.58" shape="2204.80,1793.60 2204.90,1794.30 2205.20,1794.80 2205.70,1795.10 2206.40,1795.20"/>
        <lane id=":14_2_1" index="1" speed="6.08" length="7.74" shape="2201.60,1793.60 2201.90,1795.70 2202.80,1797.20 2204.30,1798.10 2206.40,1798.40"/>
    </edge>
    <edge id=":1550_0" function="internal">
        <lane id=":1550_0_0" index="0" speed="8.96" length="18.06" shape="2795.20,1206.40 2795.90,1201.50 2798.00,1198.00 2801.50,1195.90 2806.40,1195.20"/>
        <lane id=":1550_0_1" index="1" speed="7.66" length="12.90" shape="2798.40,1206.40 2798.90,1202.90 2800.40,1200.40 2802.90,1198.90 2806.40,1198.40"/>
    </edge>
    <edge id=":1550_2" function="internal">
        <lane id=":1550_2_0" index="0" speed="3.90" length="2.58" shape="2806.40,1204.80 2805.70,1204.90 2805.20,1205.20 2804.90,1205.70 2804.80,1206.40"/>
        <lane id=":1550_2_1" index="1" speed="6.08" length="7.74" shape="2806.40,1201.60 2804.30,1201.90 2802.80,1202.80 2801.90,1204.30 2801.60,1206.40"/>
    </edge>
    <edge id=":1554_0" function="internal">
        <lane id=":1554_0_0" index="0" speed="3.90" length="2.58" shape="1595.20,806.40 1595.10,805.70 1594.80,805.20 1594.30,804.90 1593.60,804.80"/>
        <lane id=":1554_0_1" index="1" speed="6.08" length="7.74" shape="1598.40,806.40 1598.10,804.30 1597.20,802.80 1595.70,801.90 1593.60,801.60"/>
    </edge>
    <edge id=":1554_2" function="internal">
        <lane id=":1554_2_0" index="0" speed="8.96" length="18.06" shape="1593.60,795.20 1598.50,795.90 1602.00,798.00 1604.10,801.50 1604.80,806.40"/>
        <lane id=":1554_2_1" index="1" speed="7.66" length="12.90" shape="1593.60,798.40 1597.10,798.90 1599.60,800.40 1601.10,802.90 1601.60,806.40"/>
    </edge>
    <edge id=":1558_0" function="internal">
        <lane id=":1558_0_0" index="0" speed="6.51" length="9.03" shape="1795.20,610.40 1794.85,607.95 1793.80,606.20 1792.05,605.15 1789.60,604.80"/>
    </edge>
    <edge id=":1558_1" function="internal">
        <lane id=":1558_1_0" index="0" speed="13.89" length="20.80" shape="1795.20,610.40 1795.20,589.60"/>
        <lane id=":1558_1_1" index="1" speed="13.89" length="20.80" shape="1798.40,610.40 1798.40,589.60"/>
    </edge>
    <edge id=":1558_3" function="internal">
        <lane id=":1558_3_0" index="0" speed="3.65" length="1.44" shape="1798.40,610.40 1799.20,609.20"/>
    </edge>
    <edge id=":1558_11" function="internal">
        <lane id=":1558_11_0" index="0" speed="3.65" length="3.23" shape="1799.20,609.20 1800.00,608.80 1800.80,609.20 1801.60,610.40"/>
    </edge>
    <edge id=":1558_4" function="internal">
        <lane id=":1558_4_0" index="0" speed="13.89" length="20.80" shape="1804.80,589.60 1804.80,610.40"/>
        <lane id=":1558_4_1" index="1" speed="13.89" length="20.80" shape="1801.60,589.60 1801.60,610.40"/>
    </edge>
    <edge id=":1558_6" function="internal">
        <lane id=":1558_6_0" index="0" speed="9.26" length="5.01" shape="1801.60,589.60 1800.89,594.56"/>
    </edge>
    <edge id=":1558_7" function="internal">
        <lane id=":1558_7_0" index="0" speed="3.65" length="1.44" shape="1801.60,589.60 1800.80,590.80"/>
    </edge>
    <edge id=":1558_12" function="internal">
        <lane id=":1558_12_0" index="0" speed="9.26" length="14.34" shape="1800.89,594.56 1800.85,594.85 1798.60,598.60 1794.85,600.85 1789.60,601.60"/>
    </edge>
    <edge id=":1558_13" function="internal">
        <lane id=":1558_13_0" index="0" speed="3.65" length="3.23" shape="1800.80,590.80 1800.00,591.20 1799.20,590.80 1798.40,589.60"/>
    </edge>
    <edge id=":1558_8" function="internal">
        <lane id=":1558_8_0" index="0" speed="6.51" length="9.03" shape="1789.60,595.20 1792.05,594.85 1793.80,593.80 1794.85,592.05 1795.20,589.60"/>
    </edge>
    <edge id=":1558_9" function="internal">
        <lane id=":1558_9_0" index="0" speed="9.26" length="19.35" shape="1789.60,598.40 1794.85,599.15 1798.60,601.40 1800.85,605.15 1801.60,610.40"/>
    </edge>
    <edge id=":1558_10" function="internal">
        <lane id=":1558_10_0" index="0" speed="3.65" length="4.67" shape="1789.60,598.40 1790.80,599.20 1791.20,600.00 1790.80,600.80 1789.60,601.60"/>
    </edge>
    <edge id=":1562_0" function="internal">
        <lane id=":1562_0_0" index="0" speed="13.89" length="0.10" shape="1600.00,1404.80 1600.00,1404.80"/>
        <lane id=":1562_0_1" index="1" speed="13.89" length="0.10" shape="1600.00,1401.60 1600.00,1401.60"/>
    </edge>
    <edge id=":1562_2" function="internal">
        <lane id=":1562_2_0" index="0" speed="13.89" length="0.10" shape="1600.00,1395.20 1600.00,1395.20"/>
        <lane id=":1562_2_1" index="1" speed="13.89" length="0.10" shape="1600.00,1398.40 1600.00,1398.40"/>
    </edge>
    <edge id=":1675_0" function="internal">
        <lane id=":1675_0_0" index="0" speed="13.89" length="0.10" shape="3000.00,1204.80 3000.00,1204.80"/>
        <lane id=":1675_0_1" index="1" speed="13.89" length="0.10" shape="3000.00,1201.60 3000.00,1201.60"/>
    </edge>
    <edge id=":1675_2" function="internal">
        <lane id=":1675_2_0" index="0" speed="13.89" length="0.10" shape="3000.00,1195.20 3000.00,1195.20"/>
        <lane id=":1675_2_1" index="1" speed="13.89" length="0.10" shape="3000.00,1198.40 3000.00,1198.40"/>
    </edge>
    <edge id=":1678_0" function="internal">
        <lane id=":1678_0_0" index="0" speed="13.89" length="0.10" shape="1795.20,400.00 1795.20,400.00"/>
        <lane id=":1678_0_1" index="1" speed="13.89" length="0.10" shape="1798.40,400.00 1798.40,400.00"/>
    </edge>
    <edge id=":1678_2" function="internal">
        <lane id=":1678_2_0" index="0" speed="13.89" length="0.10" shape="1804.80,400.00 1804.80,400.00"/>
        <lane id=":1678_2_1" index="1" speed="13.89" length="0.10" shape="1801.60,400.00 1801.60,400.00"/>
    </edge>
    <edge id=":1680_0" function="internal">
        <lane id=":1680_0_0" index="0" speed="9.84" length="8.80" shape="1602.65,604.80 1600.42,604.59 1598.35,603.98 1596.46,602.95 1594.73,601.52"/>
        <lane id=":1680_0_1" index="1" speed="8.46" length="6.40" shape="1602.65,601.60 1600.78,601.54 1599.49,601.24 1598.36,600.54 1596.99,599.26"/>
    </edge>
    <edge id=":1680_2" function="internal">
        <lane id=":1680_2_0" index="0" speed="4.22" length="1.28" shape="1601.52,594.73 1601.79,594.99 1602.02,595.13 1602.28,595.19 1602.65,595.20"/>
        <lane id=":1680_2_1" index="1" speed="6.69" length="3.84" shape="1599.26,596.99 1600.08,597.76 1600.75,598.18 1601.53,598.36 1602.65,598.40"/>
    </edge>
    <edge id=":177_0" function="internal">
        <lane id=":177_0_0" index="0" speed="6.51" length="9.03" shape="1995.20,2410.40 1994.85,2407.95 1993.80,2406.20 1992.05,2405.15 1989.60,2404.80"/>
    </edge>
    <edge id=":177_1" function="internal">
        <lane id=":177_1_0" index="0" speed="13.89" length="20.80" shape="1995.20,2410.40 1995.20,2389.60"/>
        <lane id=":177_1_1" index="1" speed="13.89" length="20.80" shape="1998.40,2410.40 1998.40,2389.60"/>
    </edge>
    <edge id=":177_3" function="internal">