<?xml version="1.0" encoding="UTF-8"?>

<!-- generated on 2025-05-27 14:01:46 by Eclipse SUMO netgenerate Version 1.22.0
<netgenerateConfiguration xmlns:xsi="http://www.w3.org/2001/XMLSchema-instance" xsi:noNamespaceSchemaLocation="http://sumo.dlr.de/xsd/netgenerateConfiguration.xsd">

    <random_network>
        <rand value="true"/>
        <rand.iterations value="20"/>
        <rand.max-distance value="300"/>
        <rand.min-distance value="200"/>
        <rand.min-angle value="90"/>
        <rand.neighbor-dist1 value="10"/>
        <rand.neighbor-dist2 value="40"/>
        <rand.neighbor-dist3 value="25"/>
        <rand.neighbor-dist4 value="25"/>
        <rand.neighbor-dist5 value="0"/>
        <rand.neighbor-dist6 value="0"/>
        <rand.grid value="true"/>
    </random_network>

    <output>
        <output-file value="rand_4.net.xml"/>
    </output>

    <building_defaults>
        <default.lanenumber value="2"/>
    </building_defaults>

</netgenerateConfiguration>
-->

<net version="1.20" junctionCornerDetail="5" limitTurnSpeed="5.50" xmlns:xsi="http://www.w3.org/2001/XMLSchema-instance" xsi:noNamespaceSchemaLocation="http://sumo.dlr.de/xsd/net_file.xsd">

    <location netOffset="1000.00,600.00" convBoundary="0.00,0.00,1200.00,1200.00" origBoundary="-1000.00,-600.00,200.00,600.00" projParameter="!"/>

    <edge id=":1_0" function="internal">
        <lane id=":1_0_0" index="0" speed="6.51" length="9.03" shape="995.20,610.40 994.85,607.95 993.80,606.20 992.05,605.15 989.60,604.80"/>
    </edge>
    <edge id=":1_1" function="internal">
        <lane id=":1_1_0" index="0" speed="13.89" length="20.80" shape="995.20,610.40 995.20,589.60"/>
        <lane id=":1_1_1" index="1" speed="13.89" length="20.80" shape="998.40,610.40 998.40,589.60"/>
    </edge>
    <edge id=":1_3" function="internal">
        <lane id=":1_3_0" index="0" speed="9.26" length="5.01" shape="998.40,610.40 999.11,605.44"/>
    </edge>
    <edge id=":1_4" function="internal">
        <lane id=":1_4_0" index="0" speed="3.65" length="1.44" shape="998.40,610.40 999.20,609.20"/>
    </edge>
    <edge id=":1_20" function="internal">
        <lane id=":1_20_0" index="0" speed="9.26" length="14.34" shape="999.11,605.44 999.15,605.15 1001.40,601.40 1005.15,599.15 1010.40,598.40"/>
    </edge>
    <edge id=":1_21" function="internal">
        <lane id=":1_21_0" index="0" speed="3.65" length="3.23" shape="999.20,609.20 1000.00,608.80 1000.80,609.20 1001.60,610.40"/>
    </edge>
    <edge id=":1_5" function="internal">
        <lane id=":1_5_0" index="0" speed="6.51" length="9.03" shape="1010.40,604.80 1007.95,605.15 1006.20,606.20 1005.15,607.95 1004.80,610.40"/>
    </edge>
    <edge id=":1_6" function="internal">
        <lane id=":1_6_0" index="0" speed="13.89" length="20.80" shape="1010.40,604.80 989.60,604.80"/>
        <lane id=":1_6_1" index="1" speed="13.89" length="20.80" shape="1010.40,601.60 989.60,601.60"/>
    </edge>
    <edge id=":1_8" function="internal">
        <lane id=":1_8_0" index="0" speed="9.26" length="19.35" shape="1010.40,601.60 1005.15,600.85 1001.40,598.60 999.15,594.85 998.40,589.60"/>
    </edge>
    <edge id=":1_9" function="internal">
        <lane id=":1_9_0" index="0" speed="3.65" length="4.67" shape="1010.40,601.60 1009.20,600.80 1008.80,600.00 1009.20,599.20 1010.40,598.40"/>
    </edge>
    <edge id=":1_10" function="internal">
        <lane id=":1_10_0" index="0" speed="6.51" length="9.03" shape="1004.80,589.60 1005.15,592.05 1006.20,593.80 1007.95,594.85 1010.40,595.20"/>
    </edge>
    <edge id=":1_11" function="internal">
        <lane id=":1_11_0" index="0" speed="13.89" length="20.80" shape="1004.80,589.60 1004.80,610.40"/>
        <lane id=":1_11_1" index="1" speed="13.89" length="20.80" shape="1001.60,589.60 1001.60,610.40"/>
    </edge>
    <edge id=":1_13" function="internal">
        <lane id=":1_13_0" index="0" speed="9.26" length="5.01" shape="1001.60,589.60 1000.89,594.56"/>
    </edge>
    <edge id=":1_14" function="internal">
        <lane id=":1_14_0" index="0" speed="3.65" length="1.44" shape="1001.60,589.60 1000.80,590.80"/>
    </edge>
    <edge id=":1_22" function="internal">
        <lane id=":1_22_0" index="0" speed="9.26" length="14.34" shape="1000.89,594.56 1000.85,594.85 998.60,598.60 994.85,600.85 989.60,601.60"/>
    </edge>
    <edge id=":1_23" function="internal">
        <lane id=":1_23_0" index="0" speed="3.65" length="3.23" shape="1000.80,590.80 1000.00,591.20 999.20,590.80 998.40,589.60"/>
    </edge>
    <edge id=":1_15" function="internal">
        <lane id=":1_15_0" index="0" speed="6.51" length="9.03" shape="989.60,595.20 992.05,594.85 993.80,593.80 994.85,592.05 995.20,589.60"/>
    </edge>
    <edge id=":1_16" function="internal">
        <lane id=":1_16_0" index="0" speed="13.89" length="20.80" shape="989.60,595.20 1010.40,595.20"/>
        <lane id=":1_16_1" index="1" speed="13.89" length="20.80" shape="989.60,598.40 1010.40,598.40"/>
    </edge>
    <edge id=":1_18" function="internal">
        <lane id=":1_18_0" index="0" speed="9.26" length="19.35" shape="989.60,598.40 994.85,599.15 998.60,601.40 1000.85,605.15 1001.60,610.40"/>
    </edge>
    <edge id=":1_19" function="internal">
        <lane id=":1_19_0" index="0" speed="3.65" length="4.67" shape="989.60,598.40 990.80,599.20 991.20,600.00 990.80,600.80 989.60,601.60"/>
    </edge>
    <edge id=":10_0" function="internal">
        <lane id=":10_0_0" index="0" speed="13.89" length="0.10" shape="800.00,604.80 800.00,604.80"/>
        <lane id=":10_0_1" index="1" speed="13.89" length="0.10" shape="800.00,601.60 800.00,601.60"/>
    </edge>
    <edge id=":10_2" function="internal">
        <lane id=":10_2_0" index="0" speed="13.89" length="0.10" shape="800.00,595.20 800.00,595.20"/>
        <lane id=":10_2_1" index="1" speed="13.89" length="0.10" shape="800.00,598.40 800.00,598.40"/>
    </edge>
    <edge id=":101_0" function="internal">
        <lane id=":101_0_0" index="0" speed="9.84" length="8.80" shape="-1.52,805.27 -2.95,803.54 -3.98,801.65 -4.59,799.58 -4.80,797.35"/>
        <lane id=":101_0_1" index="1" speed="8.39" length="6.28" shape="0.74,803.01 -0.28,801.77 -1.01,800.42 -1.45,798.95 -1.60,797.35"/>
    </edge>
    <edge id=":101_2" function="internal">
        <lane id=":101_2_0" index="0" speed="4.20" length="1.26" shape="4.80,797.35 4.83,797.67 4.92,797.96 5.06,798.23 5.27,798.48"/>
        <lane id=":101_2_1" index="1" speed="6.63" length="3.77" shape="1.60,797.35 1.69,798.31 1.95,799.19 2.39,800.00 3.01,800.74"/>
    </edge>
    <edge id=":103_0" function="internal">
        <lane id=":103_0_0" index="0" speed="3.90" length="2.58" shape="595.20,1006.40 595.10,1005.70 594.80,1005.20 594.30,1004.90 593.60,1004.80"/>
        <lane id=":103_0_1" index="1" speed="6.08" length="7.74" shape="598.40,1006.40 598.10,1004.30 597.20,1002.80 595.70,1001.90 593.60,1001.60"/>
    </edge>
    <edge id=":103_2" function="internal">
        <lane id=":103_2_0" index="0" speed="8.96" length="18.06" shape="593.60,995.20 598.50,995.90 602.00,998.00 604.10,1001.50 604.80,1006.40"/>
        <lane id=":103_2_1" index="1" speed="7.66" length="12.90" shape="593.60,998.40 597.10,998.90 599.60,1000.40 601.10,1002.90 601.60,1006.40"/>
    </edge>
    <edge id=":105_0" function="internal">
        <lane id=":105_0_0" index="0" speed="9.84" length="8.80" shape="202.65,1004.80 200.42,1004.59 198.35,1003.98 196.46,1002.95 194.73,1001.52"/>
        <lane id=":105_0_1" index="1" speed="8.39" length="6.28" shape="202.65,1001.60 201.05,1001.45 199.58,1001.01 198.23,1000.28 196.99,999.26"/>
    </edge>
    <edge id=":105_2" function="internal">
        <lane id=":105_2_0" index="0" speed="4.20" length="1.26" shape="201.52,994.73 201.77,994.94 202.04,995.08 202.33,995.17 202.65,995.20"/>
        <lane id=":105_2_1" index="1" speed="6.63" length="3.77" shape="199.26,996.99 200.00,997.61 200.81,998.05 201.69,998.31 202.65,998.40"/>
    </edge>
    <edge id=":113_0" function="internal">
        <lane id=":113_0_0" index="0" speed="3.65" length="4.67" shape="601.60,1200.00 600.80,1201.20 600.00,1201.60 599.20,1201.20 598.40,1200.00"/>
    </edge>
    <edge id=":14_0" function="internal">
        <lane id=":14_0_0" index="0" speed="3.65" length="4.67" shape="1001.60,800.00 1000.80,801.20 1000.00,801.60 999.20,801.20 998.40,800.00"/>
    </edge>
    <edge id=":2_0" function="internal">
        <lane id=":2_0_0" index="0" speed="13.89" length="0.10" shape="995.20,400.00 995.20,400.00"/>
        <lane id=":2_0_1" index="1" speed="13.89" length="0.10" shape="998.40,400.00 998.40,400.00"/>
    </edge>
    <edge id=":2_2" function="internal">
        <lane id=":2_2_0" index="0" speed="13.89" length="0.10" shape="1004.80,400.00 1004.80,400.00"/>
        <lane id=":2_2_1" index="1" speed="13.89" length="0.10" shape="1001.60,400.00 1001.60,400.00"/>
    </edge>
    <edge id=":22_0" function="internal">
        <lane id=":22_0_0" index="0" speed="13.89" length="0.10" shape="600.00,604.80 600.00,604.80"/>
        <lane id=":22_0_1" index="1" speed="13.89" length="0.10" shape="600.00,601.60 600.00,601.60"/>
    </edge>
    <edge id=":22_2" function="internal">
        <lane id=":22_2_0" index="0" speed="13.89" length="0.10" shape="600.00,595.20 600.00,595.20"/>
        <lane id=":22_2_1" index="1" speed="13.89" length="0.10" shape="600.00,598.40 600.00,598.40"/>
    </edge>
    <edge id=":26_0" function="internal">
        <lane id=":26_0_0" index="0" speed="6.51" length="9.03" shape="995.20,210.40 994.85,207.95 993.80,206.20 992.05,205.15 989.60,204.80"/>
    </edge>
    <edge id=":26_1" function="internal">
        <lane id=":26_1_0" index="0" speed="13.89" length="20.80" shape="995.20,210.40 995.20,189.60"/>
        <lane id=":26_1_1" index="1" speed="13.89" length="20.80" shape="998.40,210.40 998.40,189.60"/>
    </edge>
    <edge id=":26_3" function="internal">
        <lane id=":26_3_0" index="0" speed="3.65" length="1.44" shape="998.40,210.40 999.20,209.20"/>
    </edge>
    <edge id=":26_11" function="internal">
        <lane id=":26_11_0" index="0" speed="3.65" length="3.23" shape="999.20,209.20 1000.00,208.80 1000.80,209.20 1001.60,210.40"/>
    </edge>
    <edge id=":26_4" function="internal">
        <lane id=":26_4_0" index="0" speed="13.89" length="20.80" shape="1004.80,189.60 1004.80,210.40"/>
        <lane id=":26_4_1" index="1" speed="13.89" length="20.80" shape="1001.60,189.60 1001.60,210.40"/>
    </edge>
    <edge id=":26_6" function="internal">
        <lane id=":26_6_0" index="0" speed="9.26" length="5.01" shape="1001.60,189.60 1000.89,194.56"/>
    </edge>
    <edge id=":26_7" function="internal">
        <lane id=":26_7_0" index="0" speed="3.65" length="1.44" shape="1001.60,189.60 1000.80,190.80"/>
    </edge>
    <edge id=":26_12" function="internal">
        <lane id=":26_12_0" index="0" speed="9.26" length="14.34" shape="1000.89,194.56 1000.85,194.85 998.60,198.60 994.85,200.85 989.60,201.60"/>
    </edge>
    <edge id=":26_13" function="internal">
        <lane id=":26_13_0" index="0" speed="3.65" length="3.23" shape="1000.80,190.80 1000.00,191.20 999.20,190.80 998.40,189.60"/>
    </edge>
    <edge id=":26_8" function="internal">
        <lane id=":26_8_0" index="0" speed="6.51" length="9.03" shape="989.60,195.20 992.05,194.85 993.80,193.80 994.85,192.05 995.20,189.60"/>
    </edge>
    <edge id=":26_9" function="internal">
        <lane id=":26_9_0" index="0" speed="9.26" length="19.35" shape="989.60,198.40 994.85,199.15 998.60,201.40 1000.85,205.15 1001.60,210.40"/>
    </edge>
    <edge id=":26_10" function="internal">
        <lane id=":26_10_0" index="0" speed="3.65" length="4.67" shape="989.60,198.40 990.80,199.20 991.20,200.00 990.80,200.80 989.60,201.60"/>
    </edge>
    <edge id=":29_0" function="internal">
        <lane id=":29_0_0" index="0" speed="6.51" length="9.03" shape="395.20,610.40 394.85,607.95 393.80,606.20 392.05,605.15 389.60,604.80"/>
    </edge>
    <edge id=":29_1" function="internal">
        <lane id=":29_1_0" index="0" speed="9.26" length="19.35" shape="398.40,610.40 399.15,605.15 401.40,601.40 405.15,599.15 410.40,598.40"/>
    </edge>
    <edge id=":29_2" function="internal">
        <lane id=":29_2_0" index="0" speed="3.65" length="4.67" shape="398.40,610.40 399.20,609.20 400.00,608.80 400.80,609.20 401.60,610.40"/>
    </edge>
    <edge id=":29_3" function="internal">
        <lane id=":29_3_0" index="0" speed="6.51" length="9.03" shape="410.40,604.80 407.95,605.15 406.20,606.20 405.15,607.95 404.80,610.40"/>
    </edge>
    <edge id=":29_4" function="internal">
        <lane id=":29_4_0" index="0" speed="13.89" length="20.80" shape="410.40,604.80 389.60,604.80"/>
        <lane id=":29_4_1" index="1" speed="13.89" length="20.80" shape="410.40,601.60 389.60,601.60"/>
    </edge>
    <edge id=":29_6" function="internal">
        <lane id=":29_6_0" index="0" speed="3.65" length="1.44" shape="410.40,601.60 409.20,600.80"/>
    </edge>
    <edge id=":29_11" function="internal">
        <lane id=":29_11_0" index="0" speed="3.65" length="3.23" shape="409.20,600.80 408.80,600.00 409.20,599.20 410.40,598.40"/>
    </edge>
    <edge id=":29_7" function="internal">
        <lane id=":29_7_0" index="0" speed="13.89" length="20.80" shape="389.60,595.20 410.40,595.20"/>
        <lane id=":29_7_1" index="1" speed="13.89" length="20.80" shape="389.60,598.40 410.40,598.40"/>
    </edge>
    <edge id=":29_9" function="internal">
        <lane id=":29_9_0" index="0" speed="9.26" length="5.01" shape="389.60,598.40 394.56,599.11"/>
    </edge>
    <edge id=":29_10" function="internal">
        <lane id=":29_10_0" index="0" speed="3.65" length="1.44" shape="389.60,598.40 390.80,599.20"/>
    </edge>
    <edge id=":29_12" function="internal">
        <lane id=":29_12_0" index="0" speed="9.26" length="14.34" shape="394.56,599.11 394.85,599.15 398.60,601.40 400.85,605.15 401.60,610.40"/>
    </edge>
    <edge id=":29_13" function="internal">
        <lane id=":29_13_0" index="0" speed="3.65" length="3.23" shape="390.80,599.20 391.20,600.00 390.80,600.80 389.60,601.60"/>
    </edge>
    <edge id=":37_0" function="internal">
        <lane id=":37_0_0" index="0" speed="3.90" length="2.58" shape="995.20,6.40 995.10,5.70 994.80,5.20 994.30,4.90 993.60,4.80"/>
        <lane id=":37_0_1" index="1" speed="6.08" length="7.74" shape="998.40,6.40 998.10,4.30 997.20,2.80 995.70,1.90 993.60,1.60"/>
    </edge>
    <edge id=":37_2" function="internal">
        <lane id=":37_2_0" index="0" speed="8.96" length="18.06" shape="993.60,-4.80 998.50,-4.10 1002.00,-2.00 1004.10,1.50 1004.80,6.40"/>
        <lane id=":37_2_1" index="1" speed="7.66" length="12.90" shape="993.60,-1.60 997.10,-1.10 999.60,0.40 1001.10,2.90 1001.60,6.40"/>
    </edge>
    <edge id=":4_0" function="internal">
        <lane id=":4_0_0" index="0" speed="3.65" length="4.67" shape="1200.00,598.40 1201.20,599.20 1201.60,600.00 1201.20,600.80 1200.00,601.60"/>
    </edge>
    <edge id=":43_0" function="internal">
        <lane id=":43_0_0" index="0" speed="13.89" length="0.10" shape="800.00,204.80 800.00,204.80"/>
        <lane id=":43_0_1" index="1" speed="13.89" length="0.10" shape="800.00,201.60 800.00,201.60"/>
    </edge>
    <edge id=":43_2" function="internal">
        <lane id=":43_2_0" index="0" speed="13.89" length="0.10" shape="800.00,195.20 800.00,195.20"/>
        <lane id=":43_2_1" index="1" speed="13.89" length="0.10" shape="800.00,198.40 800.00,198.40"/>
    </edge>
    <edge id=":50_0" function="internal">
        <lane id=":50_0_0" index="0" speed="13.89" length="0.10" shape="200.00,604.80 200.00,604.80"/>
        <lane id=":50_0_1" index="1" speed="13.89" length="0.10" shape="200.00,601.60 200.00,601.60"/>
    </edge>
    <edge id=":50_2" function="internal">
        <lane id=":50_2_0" index="0" speed="13.89" length="0.10" shape="200.00,595.20 200.00,595.20"/>
        <lane id=":50_2_1" index="1" speed="13.89" length="0.10" shape="200.00,598.40 200.00,598.40"/>
    </edge>
    <edge id=":58_0" function="internal">
        <lane id=":58_0_0" index="0" speed="13.89" length="0.10" shape="395.20,800.00 395.20,800.00"/>
        <lane id=":58_0_1" index="1" speed="13.89" length="0.10" shape="398.40,800.00 398.40,800.00"/>
    </edge>
    <edge id=":58_2" function="internal">
        <lane id=":58_2_0" index="0" speed="13.89" length="0.10" shape="404.80,800.00 404.80,800.00"/>
        <lane id=":58_2_1" index="1" speed="13.89" length="0.10" shape="401.60,800.00 401.60,800.00"/>
    </edge>
    <edge id=":62_0" function="internal">
        <lane id=":62_0_0" index="0" speed="3.65" length="4.67" shape="800.00,1.60 798.80,0.80 798.40,0.00 798.80,-0.80 800.00,-1.60"/>
    </edge>
    <edge id=":64_0" function="internal">
        <lane id=":64_0_0" index="0" speed="3.65" length="4.67" shape="600.00,201.60 598.80,200.80 598.40,200.00 598.80,199.20 600.00,198.40"/>
    </edge>
    <edge id=":76_0" function="internal">
        <lane id=":76_0_0" index="0" speed="8.96" length="18.06" shape="-4.80,606.40 -4.10,601.50 -2.00,598.00 1.50,595.90 6.40,595.20"/>
        <lane id=":76_0_1" index="1" speed="7.66" length="12.90" shape="-1.60,606.40 -1.10,602.90 0.40,600.40 2.90,598.90 6.40,598.40"/>
    </edge>
    <edge id=":76_2" function="internal">
        <lane id=":76_2_0" index="0" speed="3.90" length="2.58" shape="6.40,604.80 5.70,604.90 5.20,605.20 4.90,605.70 4.80,606.40"/>
        <lane id=":76_2_1" index="1" speed="6.08" length="7.74" shape="6.40,601.60 4.30,601.90 2.80,602.80 1.90,604.30 1.60,606.40"/>
    </edge>
    <edge id=":78_0" function="internal">
        <lane id=":78_0_0" index="0" speed="13.89" length="20.80" shape="410.40,1004.80 389.60,1004.80"/>
        <lane id=":78_0_1" index="1" speed="13.89" length="20.80" shape="410.40,1001.60 389.60,1001.60"/>
    </edge>
    <edge id=":78_2" function="internal">
        <lane id=":78_2_0" index="0" speed="9.26" length="5.01" shape="410.40,1001.60 405.44,1000.89"/>
    </edge>
    <edge id=":78_3" function="internal">
        <lane id=":78_3_0" index="0" speed="3.65" length="1.44" shape="410.40,1001.60 409.20,1000.80"/>
    </edge>
    <edge id=":78_11" function="internal">
        <lane id=":78_11_0" index="0" speed="9.26" length="14.34" shape="405.44,1000.89 405.15,1000.85 401.40,998.60 399.15,994.85 398.40,989.60"/>
    </edge>
    <edge id=":78_12" function="internal">
        <lane id=":78_12_0" index="0" speed="3.65" length="3.23" shape="409.20,1000.80 408.80,1000.00 409.20,999.20 410.40,998.40"/>
    </edge>
    <edge id=":78_4" function="internal">
        <lane id=":78_4_0" index="0" speed="6.51" length="9.03" shape="404.80,989.60 405.15,992.05 406.20,993.80 407.95,994.85 410.40,995.20"/>
    </edge>
    <edge id=":78_5" function="internal">
        <lane id=":78_5_0" index="0" speed="9.26" length="19.35" shape="401.60,989.60 400.85,994.85 398.60,998.60 394.85,1000.85 389.60,1001.60"/>
    </edge>
    <edge id=":78_6" function="internal">
        <lane id=":78_6_0" index="0" speed="3.65" length="4.67" shape="401.60,989.60 400.80,990.80 400.00,991.20 399.20,990.80 398.40,989.60"/>
    </edge>
    <edge id=":78_7" function="internal">
        <lane id=":78_7_0" index="0" speed="6.51" length="9.03" shape="389.60,995.20 392.05,994.85 393.80,993.80 394.85,992.05 395.20,989.60"/>
    </edge>
    <edge id=":78_8" function="internal">
        <lane id=":78_8_0" index="0" speed="13.89" length="20.80" shape="389.60,995.20 410.40,995.20"/>
        <lane id=":78_8_1" index="1" speed="13.89" length="20.80" shape="389.60,998.40 410.40,998.40"/>
    </edge>
    <edge id=":78_10" function="internal">
        <lane id=":78_10_0" index="0" speed="3.65" length="1.44" shape="389.60,998.40 390.80,999.20"/>
    </edge>
    <edge id=":78_13" function="internal">
        <lane id=":78_13_0" index="0" speed="3.65" length="3.23" shape="390.80,999.20 391.20,1000.00 390.80,1000.80 389.60,1001.60"/>
    </edge>

    <edge id="-102" from="101" to="76" priority="-1">
        <lane id="-102_0" index="0" speed="13.89" length="190.95" shape="-4.80,797.35 -4.80,606.40"/>
        <lane id="-102_1" index="1" speed="13.89" length="190.95" shape="-1.60,797.35 -1.60,606.40"/>
    </edge>
    <edge id="-104" from="103" to="78" priority="-1">
        <lane id="-104_0" index="0" speed="13.89" length="183.20" shape="593.60,1004.80 410.40,1004.80"/>
        <lane id="-104_1" index="1" speed="13.89" length="183.20" shape="593.60,1001.60 410.40,1001.60"/>
    </edge>
    <edge id="-106" from="105" to="78" priority="-1">
        <lane id="-106_0" index="0" speed="13.89" length="186.95" shape="202.65,995.20 389.60,995.20"/>
        <lane id="-106_1" index="1" speed="13.89" length="186.95" shape="202.65,998.40 389.60,998.40"/>
    </edge>
    <edge id="-11" from="10" to="1" priority="-1">
        <lane id="-11_0" index="0" speed="13.89" length="189.60" shape="800.00,595.20 989.60,595.20"/>
        <lane id="-11_1" index="1" speed="13.89" length="189.60" shape="800.00,598.40 989.60,598.40"/>
    </edge>
    <edge id="-112" from="105" to="101" priority="-1">
        <lane id="-112_0" index="0" speed="13.89" length="277.54" shape="194.73,1001.52 -1.52,805.27"/>
        <lane id="-112_1" index="1" speed="13.89" length="277.54" shape="196.99,999.26 0.74,803.01"/>
    </edge>
    <edge id="-114" from="113" to="103" priority="-1">
        <lane id="-114_0" index="0" speed="13.89" length="193.60" shape="595.20,1200.00 595.20,1006.40"/>
        <lane id="-114_1" index="1" speed="13.89" length="193.60" shape="598.40,1200.00 598.40,1006.40"/>
    </edge>
    <edge id="-15" from="14" to="1" priority="-1">
        <lane id="-15_0" index="0" speed="13.89" length="189.60" shape="995.20,800.00 995.20,610.40"/>
        <lane id="-15_1" index="1" speed="13.89" length="189.60" shape="998.40,800.00 998.40,610.40"/>
    </edge>
    <edge id="-23" from="22" to="10" priority="-1">
        <lane id="-23_0" index="0" speed="13.89" length="200.00" shape="600.00,595.20 800.00,595.20"/>
        <lane id="-23_1" index="1" speed="13.89" length="200.00" shape="600.00,598.40 800.00,598.40"/>
    </edge>
    <edge id="-27" from="26" to="2" priority="-1">
        <lane id="-27_0" index="0" speed="13.89" length="189.60" shape="1004.80,210.40 1004.80,400.00"/>
        <lane id="-27_1" index="1" speed="13.89" length="189.60" shape="1001.60,210.40 1001.60,400.00"/>
    </edge>
    <edge id="-3" from="2" to="1" priority="-1">
        <lane id="-3_0" index="0" speed="13.89" length="189.60" shape="1004.80,400.00 1004.80,589.60"/>
        <lane id="-3_1" index="1" speed="13.89" length="189.60" shape="1001.60,400.00 1001.60,589.60"/>
    </edge>
    <edge id="-30" from="29" to="22" priority="-1">
        <lane id="-30_0" index="0" speed="13.89" length="189.60" shape="410.40,595.20 600.00,595.20"/>
        <lane id="-30_1" index="1" speed="13.89" length="189.60" shape="410.40,598.40 600.00,598.40"/>
    </edge>
    <edge id="-38" from="37" to="26" priority="-1">
        <lane id="-38_0" index="0" speed="13.89" length="183.20" shape="1004.80,6.40 1004.80,189.60"/>
        <lane id="-38_1" index="1" speed="13.89" length="183.20" shape="1001.60,6.40 1001.60,189.60"/>
    </edge>
    <edge id="-44" from="43" to="26" priority="-1">
        <lane id="-44_0" index="0" speed="13.89" length="189.60" shape="800.00,195.20 989.60,195.20"/>
        <lane id="-44_1" index="1" speed="13.89" length="189.60" shape="800.00,198.40 989.60,198.40"/>
    </edge>
    <edge id="-5" from="4" to="1" priority="-1">
        <lane id="-5_0" index="0" speed="13.89" length="189.60" shape="1200.00,604.80 1010.40,604.80"/>
        <lane id="-5_1" index="1" speed="13.89" length="189.60" shape="1200.00,601.60 1010.40,601.60"/>
    </edge>
    <edge id="-51" from="50" to="29" priority="-1">
        <lane id="-51_0" index="0" speed="13.89" length="189.60" shape="200.00,595.20 389.60,595.20"/>
        <lane id="-51_1" index="1" speed="13.89" length="189.60" shape="200.00,598.40 389.60,598.40"/>
    </edge>
    <edge id="-59" from="58" to="29" priority="-1">
        <lane id="-59_0" index="0" speed="13.89" length="189.60" shape="395.20,800.00 395.20,610.40"/>
        <lane id="-59_1" index="1" speed="13.89" length="189.60" shape="398.40,800.00 398.40,610.40"/>
    </edge>
    <edge id="-63" from="62" to="37" priority="-1">
        <lane id="-63_0" index="0" speed="13.89" length="193.60" shape="800.00,-4.80 993.60,-4.80"/>
        <lane id="-63_1" index="1" speed="13.89" length="193.60" shape="800.00,-1.60 993.60,-1.60"/>
    </edge>
    <edge id="-65" from="64" to="43" priority="-1">
        <lane id="-65_0" index="0" speed="13.89" length="200.00" shape="600.00,195.20 800.00,195.20"/>
        <lane id="-65_1" index="1" speed="13.89" length="200.00" shape="600.00,198.40 800.00,198.40"/>
    </edge>
    <edge id="-77" from="76" to="50" priority="-1">
        <lane id="-77_0" index="0" speed="13.89" length="193.60" shape="6.40,595.20 200.00,595.20"/>
        <lane id="-77_1" index="1" speed="13.89" length="193.60" shape="6.40,598.40 200.00,598.40"/>
    </edge>
    <edge id="-79" from="78" to="58" priority="-1">
        <lane id="-79_0" index="0" speed="13.89" length="189.60" shape="395.20,989.60 395.20,800.00"/>
        <lane id="-79_1" index="1" speed="13.89" length="189.60" shape="398.40,989.60 398.40,800.00"/>
    </edge>
    <edge id="102" from="76" to="101" priority="-1">
        <lane id="102_0" index="0" speed="13.89" length="190.95" shape="4.80,606.40 4.80,797.35"/>
        <lane id="102_1" index="1" speed="13.89" length="190.95" shape="1.60,606.40 1.60,797.35"/>
    </edge>
    <edge id="104" from="78" to="103" priority="-1">
        <lane id="104_0" index="0" speed="13.89" length="183.20" shape="410.40,995.20 593.60,995.20"/>
        <lane id="104_1" index="1" speed="13.89" length="183.20" shape="410.40,998.40 593.60,998.40"/>
    </edge>
    <edge id="106" from="78" to="105" priority="-1">
        <lane id="106_0" index="0" speed="13.89" length="186.95" shape="389.60,1004.80 202.65,1004.80"/>
        <lane id="106_1" index="1" speed="13.89" length="186.95" shape="389.60,1001.60 202.65,1001.60"/>
    </edge>
    <edge id="11" from="1" to="10" priority="-1">
        <lane id="11_0" index="0" speed="13.89" length="189.60" shape="989.60,604.80 800.00,604.80"/>
        <lane id="11_1" index="1" speed="13.89" length="189.60" shape="989.60,601.60 800.00,601.60"/>
    </edge>
    <edge id="112" from="101" to="105" priority="-1">
        <lane id="112_0" index="0" speed="13.89" length="277.54" shape="5.27,798.48 201.52,994.73"/>
        <lane id="112_1" index="1" speed="13.89" length="277.54" shape="3.01,800.74 199.26,996.99"/>
    </edge>
    <edge id="114" from="103" to="113" priority="-1">
        <lane id="114_0" index="0" speed="13.89" length="193.60" shape="604.80,1006.40 604.80,1200.00"/>
        <lane id="114_1" index="1" speed="13.89" length="193.60" shape="601.60,1006.40 601.60,1200.00"/>
    </edge>
    <edge id="15" from="1" to="14" priority="-1">
        <lane id="15_0" index="0" speed="13.89" length="189.60" shape="1004.80,610.40 1004.80,800.00"/>
        <lane id="15_1" index="1" speed="13.89" length="189.60" shape="1001.60,610.40 1001.60,800.00"/>
    </edge>
    <edge id="23" from="10" to="22" priority="-1">
        <lane id="23_0" index="0" speed="13.89" length="200.00" shape="800.00,604.80 600.00,604.80"/>
        <lane id="23_1" index="1" speed="13.89" length="200.00" shape="800.00,601.60 600.00,601.60"/>
    </edge>
    <edge id="27" from="2" to="26" priority="-1">
        <lane id="27_0" index="0" speed="13.89" length="189.60" shape="995.20,400.00 995.20,210.40"/>
        <lane id="27_1" index="1" speed="13.89" length="189.60" shape="998.40,400.00 998.40,210.40"/>
    </edge>
    <edge id="3" from="1" to="2" priority="-1">
        <lane id="3_0" index="0" speed="13.89" length="189.60" shape="995.20,589.60 995.20,400.00"/>
        <lane id="3_1" index="1" speed="13.89" length="189.60" shape="998.40,589.60 998.40,400.00"/>
    </edge>
    <edge id="30" from="22" to="29" priority="-1">
        <lane id="30_0" index="0" speed="13.89" length="189.60" shape="600.00,604.80 410.40,604.80"/>
        <lane id="30_1" index="1" speed="13.89" length="189.60" shape="600.00,601.60 410.40,601.60"/>
    </edge>
    <edge id="38" from="26" to="37" priority="-1">
        <lane id="38_0" index="0" speed="13.89" length="183.20" shape="995.20,189.60 995.20,6.40"/>
        <lane id="38_1" index="1" speed="13.89" length="183.20" shape="998.40,189.60 998.40,6.40"/>
    </edge>
    <edge id="44" from="26" to="43" priority="-1">
        <lane id="44_0" index="0" speed="13.89" length="189.60" shape="989.60,204.80 800.00,204.80"/>
        <lane id="44_1" index="1" speed="13.89" length="189.60" shape="989.60,201.60 800.00,201.60"/>
    </edge>
    <edge id="5" from="1" to="4" priority="-1">
        <lane id="5_0" index="0" speed="13.89" length="189.60" shape="1010.40,595.20 1200.00,595.20"/>
        <lane id="5_1" index="1" speed="13.89" length="189.60" shape="1010.40,598.40 1200.00,598.40"/>
    </edge>
    <edge id="51" from="29" to="50" priority="-1">
        <lane id="51_0" index="0" speed="13.89" length="189.60" shape="389.60,604.80 200.00,604.80"/>
        <lane id="51_1" index="1" speed="13.89" length="189.60" shape="389.60,601.60 200.00,601.60"/>
    </edge>
    <edge id="59" from="29" to="58" priority="-1">
        <lane id="59_0" index="0" speed="13.89" length="189.60" shape="404.80,610.40 404.80,800.00"/>
        <lane id="59_1" index="1" speed="13.89" length="189.60" shape="401.60,610.40 401.60,800.00"/>
    </edge>
    <edge id="63" from="37" to="62" priority="-1">
        <lane id="63_0" index="0" speed="13.89" length="193.60" shape="993.60,4.80 800.00,4.80"/>
        <lane id="63_1" index="1" speed="13.89" length="193.60" shape="993.60,1.60 800.00,1.60"/>
    </edge>
    <edge id="65" from="43" to="64" priority="-1">