<?xml version="1.0" encoding="UTF-8"?>

<!-- generated on 2025-05-27 14:01:46 by Eclipse SUMO netgenerate Version 1.22.0
<netgenerateConfiguration xmlns:xsi="http://www.w3.org/2001/XMLSchema-instance" xsi:noNamespaceSchemaLocation="http://sumo.dlr.de/xsd/netgenerateConfiguration.xsd">

    <random_network>
        <rand value="true"/>
        <rand.iterations value="270"/>
        <rand.max-distance value="300"/>
        <rand.min-distance value="200"/>
        <rand.min-angle value="90"/>
        <rand.neighbor-dist1 value="10"/>
        <rand.neighbor-dist2 value="40"/>
        <rand.neighbor-dist3 value="25"/>
        <rand.neighbor-dist4 value="25"/>
        <rand.neighbor-dist5 value="0"/>
        <rand.neighbor-dist6 value="0"/>
        <rand.grid value="true"/>
    </random_network>

    <output>
        <output-file value="rand_80.net.xml"/>
    </output>

    <building_defaults>
        <default.lanenumber value="2"/>
    </building_defaults>

</netgenerateConfiguration>
-->

<net version="1.20" junctionCornerDetail="5" limitTurnSpeed="5.50" xmlns:xsi="http://www.w3.org/2001/XMLSchema-instance" xsi:noNamespaceSchemaLocation="http://sumo.dlr.de/xsd/net_file.xsd">

    <location netOffset="3000.00,2600.00" convBoundary="0.00,0.00,5800.00,3600.00" origBoundary="-3000.00,-2600.00,2800.00,1000.00" projParameter="!"/>

    <edge id=":1_0" function="internal">
        <lane id=":1_0_0" index="0" speed="6.51" length="9.03" shape="2995.20,2610.40 2994.85,2607.95 2993.80,2606.20 2992.05,2605.15 2989.60,2604.80"/>
    </edge>
    <edge id=":1_1" function="internal">
        <lane id=":1_1_0" index="0" speed="13.89" length="20.80" shape="2995.20,2610.40 2995.20,2589.60"/>
        <lane id=":1_1_1" index="1" speed="13.89" length="20.80" shape="2998.40,2610.40 2998.40,2589.60"/>
    </edge>
    <edge id=":1_3" function="internal">
        <lane id=":1_3_0" index="0" speed="9.26" length="5.01" shape="2998.40,2610.40 2999.11,2605.44"/>
    </edge>
    <edge id=":1_4" function="internal">
        <lane id=":1_4_0" index="0" speed="3.65" length="1.44" shape="2998.40,2610.40 2999.20,2609.20"/>
    </edge>
    <edge id=":1_20" function="internal">
        <lane id=":1_20_0" index="0" speed="9.26" length="14.34" shape="2999.11,2605.44 2999.15,2605.15 3001.40,2601.40 3005.15,2599.15 3010.40,2598.40"/>
    </edge>
    <edge id=":1_21" function="internal">
        <lane id=":1_21_0" index="0" speed="3.65" length="3.23" shape="2999.20,2609.20 3000.00,2608.80 3000.80,2609.20 3001.60,2610.40"/>
    </edge>
    <edge id=":1_5" function="internal">
        <lane id=":1_5_0" index="0" speed="6.51" length="9.03" shape="3010.40,2604.80 3007.95,2605.15 3006.20,2606.20 3005.15,2607.95 3004.80,2610.40"/>
    </edge>
    <edge id=":1_6" function="internal">
        <lane id=":1_6_0" index="0" speed="13.89" length="20.80" shape="3010.40,2604.80 2989.60,2604.80"/>
        <lane id=":1_6_1" index="1" speed="13.89" length="20.80" shape="3010.40,2601.60 2989.60,2601.60"/>
    </edge>
    <edge id=":1_8" function="internal">
        <lane id=":1_8_0" index="0" speed="9.26" length="19.35" shape="3010.40,2601.60 3005.15,2600.85 3001.40,2598.60 2999.15,2594.85 2998.40,2589.60"/>
    </edge>
    <edge id=":1_9" function="internal">
        <lane id=":1_9_0" index="0" speed="3.65" length="4.67" shape="3010.40,2601.60 3009.20,2600.80 3008.80,2600.00 3009.20,2599.20 3010.40,2598.40"/>
    </edge>
    <edge id=":1_10" function="internal">
        <lane id=":1_10_0" index="0" speed="6.51" length="9.03" shape="3004.80,2589.60 3005.15,2592.05 3006.20,2593.80 3007.95,2594.85 3010.40,2595.20"/>
    </edge>
    <edge id=":1_11" function="internal">
        <lane id=":1_11_0" index="0" speed="13.89" length="20.80" shape="3004.80,2589.60 3004.80,2610.40"/>
        <lane id=":1_11_1" index="1" speed="13.89" length="20.80" shape="3001.60,2589.60 3001.60,2610.40"/>
    </edge>
    <edge id=":1_13" function="internal">
        <lane id=":1_13_0" index="0" speed="9.26" length="5.01" shape="3001.60,2589.60 3000.89,2594.56"/>
    </edge>
    <edge id=":1_14" function="internal">
        <lane id=":1_14_0" index="0" speed="3.65" length="1.44" shape="3001.60,2589.60 3000.80,2590.80"/>
    </edge>
    <edge id=":1_22" function="internal">
        <lane id=":1_22_0" index="0" speed="9.26" length="14.34" shape="3000.89,2594.56 3000.85,2594.85 2998.60,2598.60 2994.85,2600.85 2989.60,2601.60"/>
    </edge>
    <edge id=":1_23" function="internal">
        <lane id=":1_23_0" index="0" speed="3.65" length="3.23" shape="3000.80,2590.80 3000.00,2591.20 2999.20,2590.80 2998.40,2589.60"/>
    </edge>
    <edge id=":1_15" function="internal">
        <lane id=":1_15_0" index="0" speed="6.51" length="9.03" shape="2989.60,2595.20 2992.05,2594.85 2993.80,2593.80 2994.85,2592.05 2995.20,2589.60"/>
    </edge>
    <edge id=":1_16" function="internal">
        <lane id=":1_16_0" index="0" speed="13.89" length="20.80" shape="2989.60,2595.20 3010.40,2595.20"/>
        <lane id=":1_16_1" index="1" speed="13.89" length="20.80" shape="2989.60,2598.40 3010.40,2598.40"/>
    </edge>
    <edge id=":1_18" function="internal">
        <lane id=":1_18_0" index="0" speed="9.26" length="19.35" shape="2989.60,2598.40 2994.85,2599.15 2998.60,2601.40 3000.85,2605.15 3001.60,2610.40"/>
    </edge>
    <edge id=":1_19" function="internal">
        <lane id=":1_19_0" index="0" speed="3.65" length="4.67" shape="2989.60,2598.40 2990.80,2599.20 2991.20,2600.00 2990.80,2600.80 2989.60,2601.60"/>
    </edge>
    <edge id=":10_0" function="internal">
        <lane id=":10_0_0" index="0" speed="13.89" length="20.80" shape="2810.40,2604.80 2789.60,2604.80"/>
        <lane id=":10_0_1" index="1" speed="13.89" length="20.80" shape="2810.40,2601.60 2789.60,2601.60"/>
    </edge>
    <edge id=":10_2" function="internal">
        <lane id=":10_2_0" index="0" speed="9.26" length="5.01" shape="2810.40,2601.60 2805.44,2600.89"/>
    </edge>
    <edge id=":10_3" function="internal">
        <lane id=":10_3_0" index="0" speed="3.65" length="1.44" shape="2810.40,2601.60 2809.20,2600.80"/>
    </edge>
    <edge id=":10_11" function="internal">
        <lane id=":10_11_0" index="0" speed="9.26" length="14.34" shape="2805.44,2600.89 2805.15,2600.85 2801.40,2598.60 2799.15,2594.85 2798.40,2589.60"/>
    </edge>
    <edge id=":10_12" function="internal">
        <lane id=":10_12_0" index="0" speed="3.65" length="3.23" shape="2809.20,2600.80 2808.80,2600.00 2809.20,2599.20 2810.40,2598.40"/>
    </edge>
    <edge id=":10_4" function="internal">
        <lane id=":10_4_0" index="0" speed="6.51" length="9.03" shape="2804.80,2589.60 2805.15,2592.05 2806.20,2593.80 2807.95,2594.85 2810.40,2595.20"/>
    </edge>
    <edge id=":10_5" function="internal">
        <lane id=":10_5_0" index="0" speed="9.26" length="19.35" shape="2801.60,2589.60 2800.85,2594.85 2798.60,2598.60 2794.85,2600.85 2789.60,2601.60"/>
    </edge>
    <edge id=":10_6" function="internal">
        <lane id=":10_6_0" index="0" speed="3.65" length="4.67" shape="2801.60,2589.60 2800.80,2590.80 2800.00,2591.20 2799.20,2590.80 2798.40,2589.60"/>
    </edge>
    <edge id=":10_7" function="internal">
        <lane id=":10_7_0" index="0" speed="6.51" length="9.03" shape="2789.60,2595.20 2792.05,2594.85 2793.80,2593.80 2794.85,2592.05 2795.20,2589.60"/>
    </edge>
    <edge id=":10_8" function="internal">
        <lane id=":10_8_0" index="0" speed="13.89" length="20.80" shape="2789.60,2595.20 2810.40,2595.20"/>
        <lane id=":10_8_1" index="1" speed="13.89" length="20.80" shape="2789.60,2598.40 2810.40,2598.40"/>
    </edge>
    <edge id=":10_10" function="internal">
        <lane id=":10_10_0" index="0" speed="3.65" length="1.44" shape="2789.60,2598.40 2790.80,2599.20"/>
    </edge>
    <edge id=":10_13" function="internal">
        <lane id=":10_13_0" index="0" speed="3.65" length="3.23" shape="2790.80,2599.20 2791.20,2600.00 2790.80,2600.80 2789.60,2601.60"/>
    </edge>
    <edge id=":101_0" function="internal">
        <lane id=":101_0_0" index="0" speed="9.84" length="8.80" shape="1998.48,2805.27 1997.05,2803.54 1996.02,2801.65 1995.41,2799.58 1995.20,2797.35"/>
        <lane id=":101_0_1" index="1" speed="8.39" length="6.28" shape="2000.74,2803.01 1999.72,2801.77 1998.99,2800.42 1998.55,2798.95 1998.40,2797.35"/>
    </edge>
    <edge id=":101_2" function="internal">
        <lane id=":101_2_0" index="0" speed="4.20" length="1.26" shape="2004.80,2797.35 2004.83,2797.67 2004.92,2797.96 2005.06,2798.23 2005.27,2798.48"/>
        <lane id=":101_2_1" index="1" speed="6.69" length="3.84" shape="2001.60,2797.35 2001.64,2798.47 2001.82,2799.25 2002.24,2799.92 2003.01,2800.74"/>
    </edge>
    <edge id=":103_0" function="internal">
        <lane id=":103_0_0" index="0" speed="3.90" length="2.58" shape="2595.20,3006.40 2595.10,3005.70 2594.80,3005.20 2594.30,3004.90 2593.60,3004.80"/>
        <lane id=":103_0_1" index="1" speed="6.08" length="7.74" shape="2598.40,3006.40 2598.10,3004.30 2597.20,3002.80 2595.70,3001.90 2593.60,3001.60"/>
    </edge>
    <edge id=":103_2" function="internal">
        <lane id=":103_2_0" index="0" speed="8.96" length="18.06" shape="2593.60,2995.20 2598.50,2995.90 2602.00,2998.00 2604.10,3001.50 2604.80,3006.40"/>
        <lane id=":103_2_1" index="1" speed="7.66" length="12.90" shape="2593.60,2998.40 2597.10,2998.90 2599.60,3000.40 2601.10,3002.90 2601.60,3006.40"/>
    </edge>
    <edge id=":105_0" function="internal">
        <lane id=":105_0_0" index="0" speed="9.84" length="8.80" shape="2202.65,3004.80 2200.42,3004.59 2198.35,3003.98 2196.46,3002.95 2194.73,3001.52"/>
        <lane id=":105_0_1" index="1" speed="8.39" length="6.28" shape="2202.65,3001.60 2201.05,3001.45 2199.58,3001.01 2198.23,3000.28 2196.99,2999.26"/>
    </edge>
    <edge id=":105_2" function="internal">
        <lane id=":105_2_0" index="0" speed="4.20" length="1.26" shape="2201.52,2994.73 2201.77,2994.94 2202.04,2995.08 2202.33,2995.17 2202.65,2995.20"/>
        <lane id=":105_2_1" index="1" speed="6.63" length="3.77" shape="2199.26,2996.99 2200.00,2997.61 2200.81,2998.05 2201.69,2998.31 2202.65,2998.40"/>
    </edge>
    <edge id=":113_0" function="internal">
        <lane id=":113_0_0" index="0" speed="6.51" length="9.03" shape="2595.20,3210.40 2594.85,3207.95 2593.80,3206.20 2592.05,3205.15 2589.60,3204.80"/>
    </edge>
    <edge id=":113_1" function="internal">
        <lane id=":113_1_0" index="0" speed="13.89" length="20.80" shape="2595.20,3210.40 2595.20,3189.60"/>
        <lane id=":113_1_1" index="1" speed="13.89" length="20.80" shape="2598.40,3210.40 2598.40,3189.60"/>
    </edge>
    <edge id=":113_3" function="internal">
        <lane id=":113_3_0" index="0" speed="9.26" length="5.01" shape="2598.40,3210.40 2599.11,3205.44"/>
    </edge>
    <edge id=":113_4" function="internal">
        <lane id=":113_4_0" index="0" speed="3.65" length="1.44" shape="2598.40,3210.40 2599.20,3209.20"/>
    </edge>
    <edge id=":113_20" function="internal">
        <lane id=":113_20_0" index="0" speed="9.26" length="14.34" shape="2599.11,3205.44 2599.15,3205.15 2601.40,3201.40 2605.15,3199.15 2610.40,3198.40"/>
    </edge>
    <edge id=":113_21" function="internal">
        <lane id=":113_21_0" index="0" speed="3.65" length="3.23" shape="2599.20,3209.20 2600.00,3208.80 2600.80,3209.20 2601.60,3210.40"/>
    </edge>
    <edge id=":113_5" function="internal">
        <lane id=":113_5_0" index="0" speed="6.51" length="9.03" shape="2610.40,3204.80 2607.95,3205.15 2606.20,3206.20 2605.15,3207.95 2604.80,3210.40"/>
    </edge>
    <edge id=":113_6" function="internal">
        <lane id=":113_6_0" index="0" speed="13.89" length="20.80" shape="2610.40,3204.80 2589.60,3204.80"/>
        <lane id=":113_6_1" index="1" speed="13.89" length="20.80" shape="2610.40,3201.60 2589.60,3201.60"/>
    </edge>
    <edge id=":113_8" function="internal">
        <lane id=":113_8_0" index="0" speed="9.26" length="19.35" shape="2610.40,3201.60 2605.15,3200.85 2601.40,3198.60 2599.15,3194.85 2598.40,3189.60"/>
    </edge>
    <edge id=":113_9" function="internal">
        <lane id=":113_9_0" index="0" speed="3.65" length="4.67" shape="2610.40,3201.60 2609.20,3200.80 2608.80,3200.00 2609.20,3199.20 2610.40,3198.40"/>
    </edge>
    <edge id=":113_10" function="internal">
        <lane id=":113_10_0" index="0" speed="6.51" length="9.03" shape="2604.80,3189.60 2605.15,3192.05 2606.20,3193.80 2607.95,3194.85 2610.40,3195.20"/>
    </edge>
    <edge id=":113_11" function="internal">
        <lane id=":113_11_0" index="0" speed="13.89" length="20.80" shape="2604.80,3189.60 2604.80,3210.40"/>
        <lane id=":113_11_1" index="1" speed="13.89" length="20.80" shape="2601.60,3189.60 2601.60,3210.40"/>
    </edge>
    <edge id=":113_13" function="internal">
        <lane id=":113_13_0" index="0" speed="9.26" length="5.01" shape="2601.60,3189.60 2600.89,3194.56"/>
    </edge>
    <edge id=":113_14" function="internal">
        <lane id=":113_14_0" index="0" speed="3.65" length="1.44" shape="2601.60,3189.60 2600.80,3190.80"/>
    </edge>
    <edge id=":113_22" function="internal">
        <lane id=":113_22_0" index="0" speed="9.26" length="14.34" shape="2600.89,3194.56 2600.85,3194.85 2598.60,3198.60 2594.85,3200.85 2589.60,3201.60"/>
    </edge>
    <edge id=":113_23" function="internal">
        <lane id=":113_23_0" index="0" speed="3.65" length="3.23" shape="2600.80,3190.80 2600.00,3191.20 2599.20,3190.80 2598.40,3189.60"/>
    </edge>
    <edge id=":113_15" function="internal">
        <lane id=":113_15_0" index="0" speed="6.51" length="9.03" shape="2589.60,3195.20 2592.05,3194.85 2593.80,3193.80 2594.85,3192.05 2595.20,3189.60"/>
    </edge>
    <edge id=":113_16" function="internal">
        <lane id=":113_16_0" index="0" speed="13.89" length="20.80" shape="2589.60,3195.20 2610.40,3195.20"/>
        <lane id=":113_16_1" index="1" speed="13.89" length="20.80" shape="2589.60,3198.40 2610.40,3198.40"/>
    </edge>
    <edge id=":113_18" function="internal">
        <lane id=":113_18_0" index="0" speed="9.26" length="19.35" shape="2589.60,3198.40 2594.85,3199.15 2598.60,3201.40 2600.85,3205.15 2601.60,3210.40"/>
    </edge>
    <edge id=":113_19" function="internal">
        <lane id=":113_19_0" index="0" speed="3.65" length="4.67" shape="2589.60,3198.40 2590.80,3199.20 2591.20,3200.00 2590.80,3200.80 2589.60,3201.60"/>
    </edge>
    <edge id=":120_0" function="internal">
        <lane id=":120_0_0" index="0" speed="6.51" length="9.03" shape="2395.20,3210.40 2394.85,3207.95 2393.80,3206.20 2392.05,3205.15 2389.60,3204.80"/>
    </edge>
    <edge id=":120_1" function="internal">
        <lane id=":120_1_0" index="0" speed="9.26" length="19.35" shape="2398.40,3210.40 2399.15,3205.15 2401.40,3201.40 2405.15,3199.15 2410.40,3198.40"/>
    </edge>
    <edge id=":120_2" function="internal">
        <lane id=":120_2_0" index="0" speed="3.65" length="4.67" shape="2398.40,3210.40 2399.20,3209.20 2400.00,3208.80 2400.80,3209.20 2401.60,3210.40"/>
    </edge>
    <edge id=":120_3" function="internal">
        <lane id=":120_3_0" index="0" speed="6.51" length="9.03" shape="2410.40,3204.80 2407.95,3205.15 2406.20,3206.20 2405.15,3207.95 2404.80,3210.40"/>
    </edge>
    <edge id=":120_4" function="internal">
        <lane id=":120_4_0" index="0" speed="13.89" length="20.80" shape="2410.40,3204.80 2389.60,3204.80"/>
        <lane id=":120_4_1" index="1" speed="13.89" length="20.80" shape="2410.40,3201.60 2389.60,3201.60"/>
    </edge>
    <edge id=":120_6" function="internal">
        <lane id=":120_6_0" index="0" speed="3.65" length="1.44" shape="2410.40,3201.60 2409.20,3200.80"/>
    </edge>
    <edge id=":120_11" function="internal">
        <lane id=":120_11_0" index="0" speed="3.65" length="3.23" shape="2409.20,3200.80 2408.80,3200.00 2409.20,3199.20 2410.40,3198.40"/>
    </edge>
    <edge id=":120_7" function="internal">
        <lane id=":120_7_0" index="0" speed="13.89" length="20.80" shape="2389.60,3195.20 2410.40,3195.20"/>
        <lane id=":120_7_1" index="1" speed="13.89" length="20.80" shape="2389.60,3198.40 2410.40,3198.40"/>
    </edge>
    <edge id=":120_9" function="internal">
        <lane id=":120_9_0" index="0" speed="9.26" length="5.01" shape="2389.60,3198.40 2394.56,3199.11"/>
    </edge>
    <edge id=":120_10" function="internal">
        <lane id=":120_10_0" index="0" speed="3.65" length="1.44" shape="2389.60,3198.40 2390.80,3199.20"/>
    </edge>
    <edge id=":120_12" function="internal">
        <lane id=":120_12_0" index="0" speed="9.26" length="14.34" shape="2394.56,3199.11 2394.85,3199.15 2398.60,3201.40 2400.85,3205.15 2401.60,3210.40"/>
    </edge>
    <edge id=":120_13" function="internal">
        <lane id=":120_13_0" index="0" speed="3.65" length="3.23" shape="2390.80,3199.20 2391.20,3200.00 2390.80,3200.80 2389.60,3201.60"/>
    </edge>
    <edge id=":1219_0" function="internal">
        <lane id=":1219_0_0" index="0" speed="13.89" length="0.10" shape="3595.20,2400.00 3595.20,2400.00"/>
        <lane id=":1219_0_1" index="1" speed="13.89" length="0.10" shape="3598.40,2400.00 3598.40,2400.00"/>
    </edge>
    <edge id=":1219_2" function="internal">
        <lane id=":1219_2_0" index="0" speed="13.89" length="0.10" shape="3604.80,2400.00 3604.80,2400.00"/>
        <lane id=":1219_2_1" index="1" speed="13.89" length="0.10" shape="3601.60,2400.00 3601.60,2400.00"/>
    </edge>
    <edge id=":1221_0" function="internal">
        <lane id=":1221_0_0" index="0" speed="8.96" length="18.06" shape="2406.40,2004.80 2401.50,2004.10 2398.00,2002.00 2395.90,1998.50 2395.20,1993.60"/>
        <lane id=":1221_0_1" index="1" speed="7.66" length="12.90" shape="2406.40,2001.60 2402.90,2001.10 2400.40,1999.60 2398.90,1997.10 2398.40,1993.60"/>
    </edge>
    <edge id=":1221_2" function="internal">
        <lane id=":1221_2_0" index="0" speed="3.90" length="2.58" shape="2404.80,1993.60 2404.90,1994.30 2405.20,1994.80 2405.70,1995.10 2406.40,1995.20"/>
        <lane id=":1221_2_1" index="1" speed="6.08" length="7.74" shape="2401.60,1993.60 2401.90,1995.70 2402.80,1997.20 2404.30,1998.10 2406.40,1998.40"/>
    </edge>
    <edge id=":1223_0" function="internal">
        <lane id=":1223_0_0" index="0" speed="13.89" length="0.10" shape="2595.20,1800.00 2595.20,1800.00"/>
        <lane id=":1223_0_1" index="1" speed="13.89" length="0.10" shape="2598.40,1800.00 2598.40,1800.00"/>
    </edge>
    <edge id=":1223_2" function="internal">
        <lane id=":1223_2_0" index="0" speed="13.89" length="0.10" shape="2604.80,1800.00 2604.80,1800.00"/>
        <lane id=":1223_2_1" index="1" speed="13.89" length="0.10" shape="2601.60,1800.00 2601.60,1800.00"/>
    </edge>
    <edge id=":124_0" function="internal">
        <lane id=":124_0_0" index="0" speed="3.90" length="2.58" shape="2795.20,3206.40 2795.10,3205.70 2794.80,3205.20 2794.30,3204.90 2793.60,3204.80"/>
        <lane id=":124_0_1" index="1" speed="6.08" length="7.74" shape="2798.40,3206.40 2798.10,3204.30 2797.20,3202.80 2795.70,3201.90 2793.60,3201.60"/>
    </edge>
    <edge id=":124_2" function="internal">
        <lane id=":124_2_0" index="0" speed="8.96" length="18.06" shape="2793.60,3195.20 2798.50,3195.90 2802.00,3198.00 2804.10,3201.50 2804.80,3206.40"/>
        <lane id=":124_2_1" index="1" speed="7.66" length="12.90" shape="2793.60,3198.40 2797.10,3198.90 2799.60,3200.40 2801.10,3202.90 2801.60,3206.40"/>
    </edge>
    <edge id=":128_0" function="internal">
        <lane id=":128_0_0" index="0" speed="13.89" length="20.80" shape="2595.20,3410.40 2595.20,3389.60"/>
        <lane id=":128_0_1" index="1" speed="13.89" length="20.80" shape="2598.40,3410.40 2598.40,3389.60"/>
    </edge>
    <edge id=":128_2" function="internal">
        <lane id=":128_2_0" index="0" speed="9.26" length="5.01" shape="2598.40,3410.40 2599.11,3405.44"/>
    </edge>
    <edge id=":128_3" function="internal">
        <lane id=":128_3_0" index="0" speed="3.65" length="1.44" shape="2598.40,3410.40 2599.20,3409.20"/>
    </edge>
    <edge id=":128_11" function="internal">
        <lane id=":128_11_0" index="0" speed="9.26" length="14.34" shape="2599.11,3405.44 2599.15,3405.15 2601.40,3401.40 2605.15,3399.15 2610.40,3398.40"/>
    </edge>
    <edge id=":128_12" function="internal">
        <lane id=":128_12_0" index="0" speed="3.65" length="3.23" shape="2599.20,3409.20 2600.00,3408.80 2600.80,3409.20 2601.60,3410.40"/>
    </edge>
    <edge id=":128_4" function="internal">
        <lane id=":128_4_0" index="0" speed="6.51" length="9.03" shape="2610.40,3404.80 2607.95,3405.15 2606.20,3406.20 2605.15,3407.95 2604.80,3410.40"/>
    </edge>
    <edge id=":128_5" function="internal">
        <lane id=":128_5_0" index="0" speed="9.26" length="19.35" shape="2610.40,3401.60 2605.15,3400.85 2601.40,3398.60 2599.15,3394.85 2598.40,3389.60"/>
    </edge>
    <edge id=":128_6" function="internal">
        <lane id=":128_6_0" index="0" speed="3.65" length="4.67" shape="2610.40,3401.60 2609.20,3400.80 2608.80,3400.00 2609.20,3399.20 2610.40,3398.40"/>
    </edge>
    <edge id=":128_7" function="internal">
        <lane id=":128_7_0" index="0" speed="6.51" length="9.03" shape="2604.80,3389.60 2605.15,3392.05 2606.20,3393.80 2607.95,3394.85 2610.40,3395.20"/>
    </edge>
    <edge id=":128_8" function="internal">
        <lane id=":128_8_0" index="0" speed="13.89" length="20.80" shape="2604.80,3389.60 2604.80,3410.40"/>
        <lane id=":128_8_1" index="1" speed="13.89" length="20.80" shape="2601.60,3389.60 2601.60,3410.40"/>
    </edge>
    <edge id=":128_10" function="internal">
        <lane id=":128_10_0" index="0" speed="3.65" length="1.44" shape="2601.60,3389.60 2600.80,3390.80"/>
    </edge>
    <edge id=":128_13" function="internal">
        <lane id=":128_13_0" index="0" speed="3.65" length="3.23" shape="2600.80,3390.80 2600.00,3391.20 2599.20,3390.80 2598.40,3389.60"/>
    </edge>
    <edge id=":1337_0" function="internal">
        <lane id=":1337_0_0" index="0" speed="13.89" length="0.10" shape="1795.20,2600.00 1795.20,2600.00"/>
        <lane id=":1337_0_1" index="1" speed="13.89" length="0.10" shape="1798.40,2600.00 1798.40,2600.00"/>
    </edge>
    <edge id=":1337_2" function="internal">
        <lane id=":1337_2_0" index="0" speed="13.89" length="0.10" shape="1804.80,2600.00 1804.80,2600.00"/>
        <lane id=":1337_2_1" index="1" speed="13.89" length="0.10" shape="1801.60,2600.00 1801.60,2600.00"/>
    </edge>
    <edge id=":14_0" function="internal">
        <lane id=":14_0_0" index="0" speed="8.96" length="18.06" shape="3006.40,2804.80 3001.50,2804.10 2998.00,2802.00 2995.90,2798.50 2995.20,2793.60"/>
        <lane id=":14_0_1" index="1" speed="7.66" length="12.90" shape="3006.40,2801.60 3002.90,2801.10 3000.40,2799.60 2998.90,2797.10 2998.40,2793.60"/>
    </edge>
    <edge id=":14_2" function="internal">
        <lane id=":14_2_0" index="0" speed="3.90" length="2.58" shape="3004.80,2793.60 3004.90,2794.30 3005.20,2794.80 3005.70,2795.10 3006.40,2795.20"/>
        <lane id=":14_2_1" index="1" speed="6.08" length="7.74" shape="3001.60,2793.60 3001.90,2795.70 3002.80,2797.20 3004.30,2798.10 3006.40,2798.40"/>
    </edge>
    <edge id=":1550_0" function="internal">
        <lane id=":1550_0_0" index="0" speed="8.96" length="18.06" shape="3595.20,2206.40 3595.90,2201.50 3598.00,2198.00 3601.50,2195.90 3606.40,2195.20"/>
        <lane id=":1550_0_1" index="1" speed="7.66" length="12.90" shape="3598.40,2206.40 3598.90,2202.90 3600.40,2200.40 3602.90,2198.90 3606.40,2198.40"/>
    </edge>
    <edge id=":1550_2" function="internal">
        <lane id=":1550_2_0" index="0" speed="3.90" length="2.58" shape="3606.40,2204.80 3605.70,2204.90 3605.20,2205.20 3604.90,2205.70 3604.80,2206.40"/>
        <lane id=":1550_2_1" index="1" speed="6.08" length="7.74" shape="3606.40,2201.60 3604.30,2201.90 3602.80,2202.80 3601.90,2204.30 3601.60,2206.40"/>
    </edge>
    <edge id=":1554_0" function="internal">
        <lane id=":1554_0_0" index="0" speed="3.90" length="2.58" shape="2395.20,1806.40 2395.10,1805.70 2394.80,1805.20 2394.30,1804.90 2393.60,1804.80"/>
        <lane id=":1554_0_1" index="1" speed="6.08" length="7.74" shape="2398.40,1806.40 2398.10,1804.30 2397.20,1802.80 2395.70,1801.90 2393.60,1801.60"/>
    </edge>
    <edge id=":1554_2" function="internal">
        <lane id=":1554_2_0" index="0" speed="8.96" length="18.06" shape="2393.60,1795.20 2398.50,1795.90 2402.00,1798.00 2404.10,1801.50 2404.80,1806.40"/>
        <lane id=":1554_2_1" index="1" speed="7.66" length="12.90" shape="2393.60,1798.40 2397.10,1798.90 2399.60,1800.40 2401.10,1802.90 2401.60,1806.40"/>
    </edge>
    <edge id=":1558_0" function="internal">
        <lane id=":1558_0_0" index="0" speed="6.51" length="9.03" shape="2595.20,1610.40 2594.85,1607.95 2593.80,1606.20 2592.05,1605.15 2589.60,1604.80"/>
    </edge>
    <edge id=":1558_1" function="internal">
        <lane id=":1558_1_0" index="0" speed="13.89" length="20.80" shape="2595.20,1610.40 2595.20,1589.60"/>
        <lane id=":1558_1_1" index="1" speed="13.89" length="20.80" shape="2598.40,1610.40 2598.40,1589.60"/>
    </edge>
    <edge id=":1558_3" function="internal">
        <lane id=":1558_3_0" index="0" speed="3.65" length="1.44" shape="2598.40,1610.40 2599.20,1609.20"/>
    </edge>
    <edge id=":1558_11" function="internal">
        <lane id=":1558_11_0" index="0" speed="3.65" length="3.23" shape="2599.20,1609.20 2600.00,1608.80 2600.80,1609.20 2601.60,1610.40"/>
    </edge>
    <edge id=":1558_4" function="internal">
        <lane id=":1558_4_0" index="0" speed="13.89" length="20.80" shape="2604.80,1589.60 2604.80,1610.40"/>
        <lane id=":1558_4_1" index="1" speed="13.89" length="20.80" shape="2601.60,1589.60 2601.60,1610.40"/>
    </edge>
    <edge id=":1558_6" function="internal">
        <lane id=":1558_6_0" index="0" speed="9.26" length="5.01" shape="2601.60,1589.60 2600.89,1594.56"/>
    </edge>
    <edge id=":1558_7" function="internal">
        <lane id=":1558_7_0" index="0" speed="3.65" length="1.44" shape="2601.60,1589.60 2600.80,1590.80"/>
    </edge>
    <edge id=":1558_12" function="internal">
        <lane id=":1558_12_0" index="0" speed="9.26" length="14.34" shape="2600.89,1594.56 2600.85,1594.85 2598.60,1598.60 2594.85,1600.85 2589.60,1601.60"/>
    </edge>
    <edge id=":1558_13" function="internal">
        <lane id=":1558_13_0" index="0" speed="3.65" length="3.23" shape="2600.80,1590.80 2600.00,1591.20 2599.20,1590.80 2598.40,1589.60"/>
    </edge>
    <edge id=":1558_8" function="internal">
        <lane id=":1558_8_0" index="0" speed="6.51" length="9.03" shape="2589.60,1595.20 2592.05,1594.85 2593.80,1593.80 2594.85,1592.05 2595.20,1589.60"/>
    </edge>
    <edge id=":1558_9" function="internal">
        <lane id=":1558_9_0" index="0" speed="9.26" length="19.35" shape="2589.60,1598.40 2594.85,1599.15 2598.60,1601.40 2600.85,1605.15 2601.60,1610.40"/>
    </edge>
    <edge id=":1558_10" function="internal">
        <lane id=":1558_10_0" index="0" speed="3.65" length="4.67" shape="2589.60,1598.40 2590.80,1599.20 2591.20,1600.00 2590.80,1600.80 2589.60,1601.60"/>
    </edge>
    <edge id=":1562_0" function="internal">
        <lane id=":1562_0_0" index="0" speed="13.89" length="0.10" shape="2400.00,2404.80 2400.00,2404.80"/>
        <lane id=":1562_0_1" index="1" speed="13.89" length="0.10" shape="2400.00,2401.60 2400.00,2401.60"/>
    </edge>
    <edge id=":1562_2" function="internal">
        <lane id=":1562_2_0" index="0" speed="13.89" length="0.10" shape="2400.00,2395.20 2400.00,2395.20"/>
        <lane id=":1562_2_1" index="1" speed="13.89" length="0.10" shape="2400.00,2398.40 2400.00,2398.40"/>
    </edge>
    <edge id=":1675_0" function="internal">
        <lane id=":1675_0_0" index="0" speed="13.89" length="0.10" shape="3800.00,2204.80 3800.00,2204.80"/>
        <lane id=":1675_0_1" index="1" speed="13.89" length="0.10" shape="3800.00,2201.60 3800.00,2201.60"/>
    </edge>
    <edge id=":1675_2" function="internal">
        <lane id=":1675_2_0" index="0" speed="13.89" length="0.10" shape="3800.00,2195.20 3800.00,2195.20"/>
        <lane id=":1675_2_1" index="1" speed="13.89" length="0.10" shape="3800.00,2198.40 3800.00,2198.40"/>
    </edge>
    <edge id=":1678_0" function="internal">
        <lane id=":1678_0_0" index="0" speed="13.89" length="0.10" shape="2595.20,1400.00 2595.20,1400.00"/>
        <lane id=":1678_0_1" index="1" speed="13.89" length="0.10" shape="2598.40,1400.00 2598.40,1400.00"/>
    </edge>
    <edge id=":1678_2" function="internal">
        <lane id=":1678_2_0" index="0" speed="13.89" length="0.10" shape="2604.80,1400.00 2604.80,1400.00"/>
        <lane id=":1678_2_1" index="1" speed="13.89" length="0.10" shape="2601.60,1400.00 2601.60,1400.00"/>
    </edge>
    <edge id=":1680_0" function="internal">
        <lane id=":1680_0_0" index="0" speed="9.93" length="8.96" shape="2402.65,1604.80 2400.03,1604.71 2398.22,1604.30 2396.64,1603.31 2394.73,1601.52"/>
        <lane id=":1680_0_1" index="1" speed="8.46" length="6.40" shape="2402.65,1601.60 2400.78,1601.54 2399.49,1601.24 2398.36,1600.54 2396.99,1599.26"/>
    </edge>
    <edge id=":1680_2" function="internal">
        <lane id=":1680_2_0" index="0" speed="4.22" length="1.28" shape="2401.52,1594.73 2401.79,1594.99 2402.02,1595.13 2402.28,1595.19 2402.65,1595.20"/>
        <lane id=":1680_2_1" index="1" speed="6.69" length="3.84" shape="2399.26,1596.99 2400.08,1597.76 2400.75,1598.18 2401.53,1598.36 2402.65,1598.40"/>
    </edge>
    <edge id=":177_0" function="internal">
        <lane id=":177_0_0" index="0" speed="6.51" length="9.03" shape="2795.20,3410.40 2794.85,3407.95 2793.80,3406.20 2792.05,3405.15 2789.60,3404.80"/>
    </edge>
    <edge id=":177_1" function="internal">
        <lane id=":177_1_0" index="0" speed="13.89" length="20.80" shape="2795.20,3410.40 2795.20,3389.60"/>