<configuration><input><net-file value="grid3.net.xml" /></input></configuration>