<configuration><input><net-file value="grid4.net.xml" /></input></configuration>