<configuration><input><net-file value="grid0.net.xml" /></input></configuration>