<configuration><input><net-file value="grid2.net.xml" /></input></configuration>