<configuration><input><net-file value="grid1.net.xml" /></input></configuration>