<?xml version="1.0" encoding="UTF-8"?>

<!-- generated on 2025-02-09 19:40:17 by Eclipse SUMO netedit Version 1.22.0
<neteditConfiguration xmlns:xsi="http://www.w3.org/2001/XMLSchema-instance" xsi:noNamespaceSchemaLocation="http://sumo.dlr.de/xsd/neteditConfiguration.xsd">

    <input>
        <sumo-net-file value="/home/roman/Car-Traffic-RL-Scheduler/src/configs/grid-configs/grid5.net.xml"/>
    </input>

    <output>
        <output-file value="/home/roman/Car-Traffic-RL-Scheduler/src/configs/grid-configs/grid5.net.xml"/>
    </output>

    <processing>
        <offset.disable-normalization value="true"/>
    </processing>

    <junctions>
        <no-turnarounds value="true"/>
    </junctions>

    <netedit>
        <new-network value="false"/>
    </netedit>

</neteditConfiguration>
-->

<net version="1.20" junctionCornerDetail="5" limitTurnSpeed="5.50" xmlns:xsi="http://www.w3.org/2001/XMLSchema-instance" xsi:noNamespaceSchemaLocation="http://sumo.dlr.de/xsd/net_file.xsd">

    <location netOffset="0.00,0.00" convBoundary="-51.19,-27.20,62.47,39.43" origBoundary="10000000000.00,10000000000.00,-10000000000.00,-10000000000.00" projParameter="!"/>

    <edge id=":J1_0" function="internal">
        <lane id=":J1_0_0" index="0" speed="6.55" length="8.88" shape="-8.15,3.20 -5.79,2.80 -4.09,1.72 -3.05,-0.02 -2.68,-2.44"/>
    </edge>
    <edge id=":J1_1" function="internal">
        <lane id=":J1_1_0" index="0" speed="13.89" length="13.98" shape="-8.15,3.20 5.83,2.89"/>
    </edge>
    <edge id=":J1_2" function="internal">
        <lane id=":J1_2_0" index="0" speed="7.26" length="11.41" shape="-8.15,3.20 -4.42,3.45 -1.72,4.41 -0.07,6.09 0.54,8.47"/>
    </edge>

    <edge id="E0" from="J0" to="J1" priority="-1">
        <lane id="E0_0" index="0" speed="13.89" length="43.09" shape="-51.23,4.22 -8.15,3.20"/>
    </edge>
    <edge id="E1" from="J1" to="J2" priority="-1">
        <lane id="E1_0" index="0" speed="13.89" length="30.93" shape="0.54,8.47 1.60,39.38"/>
    </edge>
    <edge id="E2" from="J1" to="J3" priority="-1">
        <lane id="E2_0" index="0" speed="13.89" length="56.62" shape="5.83,2.89 62.44,1.73"/>
    </edge>
    <edge id="E3" from="J1" to="J4" priority="-1">
        <lane id="E3_0" index="0" speed="13.89" length="24.78" shape="-2.68,-2.44 -2.31,-27.22"/>
    </edge>

    <junction id="J0" type="dead_end" x="-51.19" y="5.82" incLanes="" intLanes="" shape="-51.19,5.82 -51.26,2.62"/>
    <junction id="J1" type="priority" x="-1.19" y="4.63" incLanes="E0_0" intLanes=":J1_0_0 :J1_1_0 :J1_2_0" shape="-1.05,8.52 2.14,8.41 2.50,6.27 3.01,5.51 3.74,4.96 4.69,4.62 5.86,4.49 5.79,1.29 3.68,1.22 1.95,0.94 0.61,0.43 -0.34,-0.30 -0.91,-1.25 -1.08,-2.42 -4.28,-2.47 -4.74,-0.25 -5.29,0.54 -6.04,1.11 -7.01,1.46 -8.19,1.60 -8.11,4.80 -5.99,4.85 -4.25,5.14 -2.89,5.65 -1.90,6.38 -1.29,7.34">
        <request index="0" response="000" foes="000" cont="0"/>
        <request index="1" response="000" foes="000" cont="0"/>
        <request index="2" response="000" foes="000" cont="0"/>
    </junction>
    <junction id="J2" type="dead_end" x="0.00" y="39.43" incLanes="E1_0" intLanes="" shape="3.20,39.32 0.00,39.43"/>
    <junction id="J3" type="dead_end" x="62.47" y="3.33" incLanes="E2_0" intLanes="" shape="62.40,0.13 62.47,3.33"/>
    <junction id="J4" type="dead_end" x="-0.71" y="-27.20" incLanes="E3_0" intLanes="" shape="-3.91,-27.24 -0.71,-27.20"/>

    <connection from="E0" to="E3" fromLane="0" toLane="0" via=":J1_0_0" dir="r" state="M"/>
    <connection from="E0" to="E2" fromLane="0" toLane="0" via=":J1_1_0" dir="s" state="M"/>
    <connection from="E0" to="E1" fromLane="0" toLane="0" via=":J1_2_0" dir="l" state="M"/>

    <connection from=":J1_0" to="E3" fromLane="0" toLane="0" dir="r" state="M"/>
    <connection from=":J1_1" to="E2" fromLane="0" toLane="0" dir="s" state="M"/>
    <connection from=":J1_2" to="E1" fromLane="0" toLane="0" dir="l" state="M"/>

</net>
