<configuration><input><net-file value="spider1.net.xml" /></input></configuration>