<configuration><input><net-file value="spider0.net.xml" /></input></configuration>