<configuration><input><net-file value="spider2.net.xml" /></input></configuration>