<configuration><input><net-file value="spider3.net.xml" /></input></configuration>