<configuration><input><net-file value="spider4.net.xml" /></input></configuration>