<?xml version="1.0" encoding="UTF-8"?>

<!-- generated on 2025-05-05 13:19:23 by Eclipse SUMO netgenerate Version 1.22.0
<netgenerateConfiguration xmlns:xsi="http://www.w3.org/2001/XMLSchema-instance" xsi:noNamespaceSchemaLocation="http://sumo.dlr.de/xsd/netgenerateConfiguration.xsd">

    <random_network>
        <rand value="true"/>
        <rand.iterations value="140"/>
        <rand.max-distance value="300"/>
        <rand.min-distance value="150"/>
        <rand.min-angle value="90"/>
        <rand.neighbor-dist1 value="15"/>
        <rand.neighbor-dist2 value="45"/>
        <rand.neighbor-dist3 value="20"/>
        <rand.neighbor-dist4 value="20"/>
        <rand.grid value="true"/>
    </random_network>

    <output>
        <output-file value="test_map.net.xml"/>
    </output>

    <building_defaults>
        <default.lanenumber value="2"/>
    </building_defaults>

    <tls_building>
        <tls.guess value="true"/>
        <tls.guess.threshold value="0"/>
    </tls_building>

</netgenerateConfiguration>
-->

<net version="1.20" junctionCornerDetail="5" limitTurnSpeed="5.50" xmlns:xsi="http://www.w3.org/2001/XMLSchema-instance" xsi:noNamespaceSchemaLocation="http://sumo.dlr.de/xsd/net_file.xsd">

    <location netOffset="1350.00,1950.00" convBoundary="0.00,0.00,2850.00,2700.00" origBoundary="-1350.00,-1950.00,1500.00,750.00" projParameter="!"/>

    <edge id=":1_0" function="internal">
        <lane id=":1_0_0" index="0" speed="6.51" length="9.03" shape="1345.20,1960.40 1344.85,1957.95 1343.80,1956.20 1342.05,1955.15 1339.60,1954.80"/>
    </edge>
    <edge id=":1_1" function="internal">
        <lane id=":1_1_0" index="0" speed="13.89" length="20.80" shape="1345.20,1960.40 1345.20,1939.60"/>
        <lane id=":1_1_1" index="1" speed="13.89" length="20.80" shape="1348.40,1960.40 1348.40,1939.60"/>
    </edge>
    <edge id=":1_3" function="internal">
        <lane id=":1_3_0" index="0" speed="9.26" length="5.01" shape="1348.40,1960.40 1349.11,1955.44"/>
    </edge>
    <edge id=":1_4" function="internal">
        <lane id=":1_4_0" index="0" speed="3.65" length="1.44" shape="1348.40,1960.40 1349.20,1959.20"/>
    </edge>
    <edge id=":1_20" function="internal">
        <lane id=":1_20_0" index="0" speed="9.26" length="14.34" shape="1349.11,1955.44 1349.15,1955.15 1351.40,1951.40 1355.15,1949.15 1360.40,1948.40"/>
    </edge>
    <edge id=":1_21" function="internal">
        <lane id=":1_21_0" index="0" speed="3.65" length="3.23" shape="1349.20,1959.20 1350.00,1958.80 1350.80,1959.20 1351.60,1960.40"/>
    </edge>
    <edge id=":1_5" function="internal">
        <lane id=":1_5_0" index="0" speed="6.51" length="9.03" shape="1360.40,1954.80 1357.95,1955.15 1356.20,1956.20 1355.15,1957.95 1354.80,1960.40"/>
    </edge>
    <edge id=":1_6" function="internal">
        <lane id=":1_6_0" index="0" speed="13.89" length="20.80" shape="1360.40,1954.80 1339.60,1954.80"/>
        <lane id=":1_6_1" index="1" speed="13.89" length="20.80" shape="1360.40,1951.60 1339.60,1951.60"/>
    </edge>
    <edge id=":1_8" function="internal">
        <lane id=":1_8_0" index="0" speed="9.26" length="5.01" shape="1360.40,1951.60 1355.44,1950.89"/>
    </edge>
    <edge id=":1_9" function="internal">
        <lane id=":1_9_0" index="0" speed="3.65" length="1.44" shape="1360.40,1951.60 1359.20,1950.80"/>
    </edge>
    <edge id=":1_22" function="internal">
        <lane id=":1_22_0" index="0" speed="9.26" length="14.34" shape="1355.44,1950.89 1355.15,1950.85 1351.40,1948.60 1349.15,1944.85 1348.40,1939.60"/>
    </edge>
    <edge id=":1_23" function="internal">
        <lane id=":1_23_0" index="0" speed="3.65" length="3.23" shape="1359.20,1950.80 1358.80,1950.00 1359.20,1949.20 1360.40,1948.40"/>
    </edge>
    <edge id=":1_10" function="internal">
        <lane id=":1_10_0" index="0" speed="6.51" length="9.03" shape="1354.80,1939.60 1355.15,1942.05 1356.20,1943.80 1357.95,1944.85 1360.40,1945.20"/>
    </edge>
    <edge id=":1_11" function="internal">
        <lane id=":1_11_0" index="0" speed="13.89" length="20.80" shape="1354.80,1939.60 1354.80,1960.40"/>
        <lane id=":1_11_1" index="1" speed="13.89" length="20.80" shape="1351.60,1939.60 1351.60,1960.40"/>
    </edge>
    <edge id=":1_13" function="internal">
        <lane id=":1_13_0" index="0" speed="9.26" length="5.01" shape="1351.60,1939.60 1350.89,1944.56"/>
    </edge>
    <edge id=":1_14" function="internal">
        <lane id=":1_14_0" index="0" speed="3.65" length="1.44" shape="1351.60,1939.60 1350.80,1940.80"/>
    </edge>
    <edge id=":1_24" function="internal">
        <lane id=":1_24_0" index="0" speed="9.26" length="14.34" shape="1350.89,1944.56 1350.85,1944.85 1348.60,1948.60 1344.85,1950.85 1339.60,1951.60"/>
    </edge>
    <edge id=":1_25" function="internal">
        <lane id=":1_25_0" index="0" speed="3.65" length="3.23" shape="1350.80,1940.80 1350.00,1941.20 1349.20,1940.80 1348.40,1939.60"/>
    </edge>
    <edge id=":1_15" function="internal">
        <lane id=":1_15_0" index="0" speed="6.51" length="9.03" shape="1339.60,1945.20 1342.05,1944.85 1343.80,1943.80 1344.85,1942.05 1345.20,1939.60"/>
    </edge>
    <edge id=":1_16" function="internal">
        <lane id=":1_16_0" index="0" speed="13.89" length="20.80" shape="1339.60,1945.20 1360.40,1945.20"/>
        <lane id=":1_16_1" index="1" speed="13.89" length="20.80" shape="1339.60,1948.40 1360.40,1948.40"/>
    </edge>
    <edge id=":1_18" function="internal">
        <lane id=":1_18_0" index="0" speed="9.26" length="5.01" shape="1339.60,1948.40 1344.56,1949.11"/>
    </edge>
    <edge id=":1_19" function="internal">
        <lane id=":1_19_0" index="0" speed="3.65" length="1.44" shape="1339.60,1948.40 1340.80,1949.20"/>
    </edge>
    <edge id=":1_26" function="internal">
        <lane id=":1_26_0" index="0" speed="9.26" length="14.34" shape="1344.56,1949.11 1344.85,1949.15 1348.60,1951.40 1350.85,1955.15 1351.60,1960.40"/>
    </edge>
    <edge id=":1_27" function="internal">
        <lane id=":1_27_0" index="0" speed="3.65" length="3.23" shape="1340.80,1949.20 1341.20,1950.00 1340.80,1950.80 1339.60,1951.60"/>
    </edge>
    <edge id=":10_0" function="internal">
        <lane id=":10_0_0" index="0" speed="13.89" length="0.10" shape="1200.00,1954.80 1200.00,1954.80"/>
        <lane id=":10_0_1" index="1" speed="13.89" length="0.10" shape="1200.00,1951.60 1200.00,1951.60"/>
    </edge>
    <edge id=":10_2" function="internal">
        <lane id=":10_2_0" index="0" speed="13.89" length="0.10" shape="1200.00,1945.20 1200.00,1945.20"/>
        <lane id=":10_2_1" index="1" speed="13.89" length="0.10" shape="1200.00,1948.40 1200.00,1948.40"/>
    </edge>
    <edge id=":1087_0" function="internal">
        <lane id=":1087_0_0" index="0" speed="6.51" length="9.03" shape="745.20,610.40 744.85,607.95 743.80,606.20 742.05,605.15 739.60,604.80"/>
    </edge>
    <edge id=":1087_1" function="internal">
        <lane id=":1087_1_0" index="0" speed="13.89" length="20.80" shape="745.20,610.40 745.20,589.60"/>
        <lane id=":1087_1_1" index="1" speed="13.89" length="20.80" shape="748.40,610.40 748.40,589.60"/>
    </edge>
    <edge id=":1087_3" function="internal">
        <lane id=":1087_3_0" index="0" speed="3.65" length="1.44" shape="748.40,610.40 749.20,609.20"/>
    </edge>
    <edge id=":1087_12" function="internal">
        <lane id=":1087_12_0" index="0" speed="3.65" length="3.23" shape="749.20,609.20 750.00,608.80 750.80,609.20 751.60,610.40"/>
    </edge>
    <edge id=":1087_4" function="internal">
        <lane id=":1087_4_0" index="0" speed="13.89" length="20.80" shape="754.80,589.60 754.80,610.40"/>
        <lane id=":1087_4_1" index="1" speed="13.89" length="20.80" shape="751.60,589.60 751.60,610.40"/>
    </edge>
    <edge id=":1087_6" function="internal">
        <lane id=":1087_6_0" index="0" speed="9.26" length="5.01" shape="751.60,589.60 750.89,594.56"/>
    </edge>
    <edge id=":1087_7" function="internal">
        <lane id=":1087_7_0" index="0" speed="3.65" length="1.44" shape="751.60,589.60 750.80,590.80"/>
    </edge>
    <edge id=":1087_13" function="internal">
        <lane id=":1087_13_0" index="0" speed="9.26" length="14.34" shape="750.89,594.56 750.85,594.85 748.60,598.60 744.85,600.85 739.60,601.60"/>
    </edge>
    <edge id=":1087_14" function="internal">
        <lane id=":1087_14_0" index="0" speed="3.65" length="3.23" shape="750.80,590.80 750.00,591.20 749.20,590.80 748.40,589.60"/>
    </edge>
    <edge id=":1087_8" function="internal">
        <lane id=":1087_8_0" index="0" speed="6.51" length="9.03" shape="739.60,595.20 742.05,594.85 743.80,593.80 744.85,592.05 745.20,589.60"/>
        <lane id=":1087_8_1" index="1" speed="8.00" length="14.19" shape="739.60,598.40 743.45,597.85 746.20,596.20 747.85,593.45 748.40,589.60"/>
    </edge>
    <edge id=":1087_10" function="internal">
        <lane id=":1087_10_0" index="0" speed="9.26" length="19.35" shape="739.60,598.40 744.85,599.15 748.60,601.40 750.85,605.15 751.60,610.40"/>
    </edge>
    <edge id=":1087_11" function="internal">
        <lane id=":1087_11_0" index="0" speed="3.65" length="2.34" shape="739.60,598.40 740.80,599.20 741.20,600.00"/>
    </edge>
    <edge id=":1087_15" function="internal">
        <lane id=":1087_15_0" index="0" speed="3.65" length="2.34" shape="741.20,600.00 740.80,600.80 739.60,601.60"/>
    </edge>
    <edge id=":1089_0" function="internal">
        <lane id=":1089_0_0" index="0" speed="13.89" length="0.10" shape="900.00,1804.80 900.00,1804.80"/>
        <lane id=":1089_0_1" index="1" speed="13.89" length="0.10" shape="900.00,1801.60 900.00,1801.60"/>
    </edge>
    <edge id=":1089_2" function="internal">
        <lane id=":1089_2_0" index="0" speed="13.89" length="0.10" shape="900.00,1795.20 900.00,1795.20"/>
        <lane id=":1089_2_1" index="1" speed="13.89" length="0.10" shape="900.00,1798.40 900.00,1798.40"/>
    </edge>
    <edge id=":1106_0" function="internal">
        <lane id=":1106_0_0" index="0" speed="8.96" length="18.06" shape="445.20,456.40 445.90,451.50 448.00,448.00 451.50,445.90 456.40,445.20"/>
        <lane id=":1106_0_1" index="1" speed="7.66" length="12.90" shape="448.40,456.40 448.90,452.90 450.40,450.40 452.90,448.90 456.40,448.40"/>
    </edge>
    <edge id=":1106_2" function="internal">
        <lane id=":1106_2_0" index="0" speed="3.90" length="2.58" shape="456.40,454.80 455.70,454.90 455.20,455.20 454.90,455.70 454.80,456.40"/>
        <lane id=":1106_2_1" index="1" speed="6.08" length="7.74" shape="456.40,451.60 454.30,451.90 452.80,452.80 451.90,454.30 451.60,456.40"/>
    </edge>
    <edge id=":1225_0" function="internal">
        <lane id=":1225_0_0" index="0" speed="13.89" length="0.10" shape="600.00,454.80 600.00,454.80"/>
        <lane id=":1225_0_1" index="1" speed="13.89" length="0.10" shape="600.00,451.60 600.00,451.60"/>
    </edge>
    <edge id=":1225_2" function="internal">
        <lane id=":1225_2_0" index="0" speed="13.89" length="0.10" shape="600.00,445.20 600.00,445.20"/>
        <lane id=":1225_2_1" index="1" speed="13.89" length="0.10" shape="600.00,448.40 600.00,448.40"/>
    </edge>
    <edge id=":1243_0" function="internal">
        <lane id=":1243_0_0" index="0" speed="8.96" length="18.06" shape="2404.80,1643.60 2404.10,1648.50 2402.00,1652.00 2398.50,1654.10 2393.60,1654.80"/>
        <lane id=":1243_0_1" index="1" speed="7.66" length="12.90" shape="2401.60,1643.60 2401.10,1647.10 2399.60,1649.60 2397.10,1651.10 2393.60,1651.60"/>
    </edge>
    <edge id=":1243_2" function="internal">
        <lane id=":1243_2_0" index="0" speed="3.90" length="2.58" shape="2393.60,1645.20 2394.30,1645.10 2394.80,1644.80 2395.10,1644.30 2395.20,1643.60"/>
        <lane id=":1243_2_1" index="1" speed="6.08" length="7.74" shape="2393.60,1648.40 2395.70,1648.10 2397.20,1647.20 2398.10,1645.70 2398.40,1643.60"/>
    </edge>
    <edge id=":1252_0" function="internal">
        <lane id=":1252_0_0" index="0" speed="6.51" length="9.03" shape="745.20,460.40 744.85,457.95 743.80,456.20 742.05,455.15 739.60,454.80"/>
    </edge>
    <edge id=":1252_1" function="internal">
        <lane id=":1252_1_0" index="0" speed="13.89" length="20.80" shape="745.20,460.40 745.20,439.60"/>
        <lane id=":1252_1_1" index="1" speed="13.89" length="20.80" shape="748.40,460.40 748.40,439.60"/>
    </edge>
    <edge id=":1252_3" function="internal">
        <lane id=":1252_3_0" index="0" speed="9.26" length="5.01" shape="748.40,460.40 749.11,455.44"/>
    </edge>
    <edge id=":1252_4" function="internal">
        <lane id=":1252_4_0" index="0" speed="3.65" length="1.44" shape="748.40,460.40 749.20,459.20"/>
    </edge>
    <edge id=":1252_20" function="internal">
        <lane id=":1252_20_0" index="0" speed="9.26" length="14.34" shape="749.11,455.44 749.15,455.15 751.40,451.40 755.15,449.15 760.40,448.40"/>
    </edge>
    <edge id=":1252_21" function="internal">
        <lane id=":1252_21_0" index="0" speed="3.65" length="3.23" shape="749.20,459.20 750.00,458.80 750.80,459.20 751.60,460.40"/>
    </edge>
    <edge id=":1252_5" function="internal">
        <lane id=":1252_5_0" index="0" speed="6.51" length="9.03" shape="760.40,454.80 757.95,455.15 756.20,456.20 755.15,457.95 754.80,460.40"/>
    </edge>
    <edge id=":1252_6" function="internal">
        <lane id=":1252_6_0" index="0" speed="13.89" length="20.80" shape="760.40,454.80 739.60,454.80"/>
        <lane id=":1252_6_1" index="1" speed="13.89" length="20.80" shape="760.40,451.60 739.60,451.60"/>
    </edge>
    <edge id=":1252_8" function="internal">
        <lane id=":1252_8_0" index="0" speed="9.26" length="5.01" shape="760.40,451.60 755.44,450.89"/>
    </edge>
    <edge id=":1252_9" function="internal">
        <lane id=":1252_9_0" index="0" speed="3.65" length="1.44" shape="760.40,451.60 759.20,450.80"/>
    </edge>
    <edge id=":1252_22" function="internal">
        <lane id=":1252_22_0" index="0" speed="9.26" length="14.34" shape="755.44,450.89 755.15,450.85 751.40,448.60 749.15,444.85 748.40,439.60"/>
    </edge>
    <edge id=":1252_23" function="internal">
        <lane id=":1252_23_0" index="0" speed="3.65" length="3.23" shape="759.20,450.80 758.80,450.00 759.20,449.20 760.40,448.40"/>
    </edge>
    <edge id=":1252_10" function="internal">
        <lane id=":1252_10_0" index="0" speed="6.51" length="9.03" shape="754.80,439.60 755.15,442.05 756.20,443.80 757.95,444.85 760.40,445.20"/>
    </edge>
    <edge id=":1252_11" function="internal">
        <lane id=":1252_11_0" index="0" speed="13.89" length="20.80" shape="754.80,439.60 754.80,460.40"/>
        <lane id=":1252_11_1" index="1" speed="13.89" length="20.80" shape="751.60,439.60 751.60,460.40"/>
    </edge>
    <edge id=":1252_13" function="internal">
        <lane id=":1252_13_0" index="0" speed="9.26" length="5.01" shape="751.60,439.60 750.89,444.56"/>
    </edge>
    <edge id=":1252_14" function="internal">
        <lane id=":1252_14_0" index="0" speed="3.65" length="1.44" shape="751.60,439.60 750.80,440.80"/>
    </edge>
    <edge id=":1252_24" function="internal">
        <lane id=":1252_24_0" index="0" speed="9.26" length="14.34" shape="750.89,444.56 750.85,444.85 748.60,448.60 744.85,450.85 739.60,451.60"/>
    </edge>
    <edge id=":1252_25" function="internal">
        <lane id=":1252_25_0" index="0" speed="3.65" length="3.23" shape="750.80,440.80 750.00,441.20 749.20,440.80 748.40,439.60"/>
    </edge>
    <edge id=":1252_15" function="internal">
        <lane id=":1252_15_0" index="0" speed="6.51" length="9.03" shape="739.60,445.20 742.05,444.85 743.80,443.80 744.85,442.05 745.20,439.60"/>
    </edge>
    <edge id=":1252_16" function="internal">
        <lane id=":1252_16_0" index="0" speed="13.89" length="20.80" shape="739.60,445.20 760.40,445.20"/>
        <lane id=":1252_16_1" index="1" speed="13.89" length="20.80" shape="739.60,448.40 760.40,448.40"/>
    </edge>
    <edge id=":1252_18" function="internal">
        <lane id=":1252_18_0" index="0" speed="9.26" length="5.01" shape="739.60,448.40 744.56,449.11"/>
    </edge>
    <edge id=":1252_19" function="internal">
        <lane id=":1252_19_0" index="0" speed="3.65" length="1.44" shape="739.60,448.40 740.80,449.20"/>
    </edge>
    <edge id=":1252_26" function="internal">
        <lane id=":1252_26_0" index="0" speed="9.26" length="14.34" shape="744.56,449.11 744.85,449.15 748.60,451.40 750.85,455.15 751.60,460.40"/>
    </edge>
    <edge id=":1252_27" function="internal">
        <lane id=":1252_27_0" index="0" speed="3.65" length="3.23" shape="740.80,449.20 741.20,450.00 740.80,450.80 739.60,451.60"/>
    </edge>
    <edge id=":1263_0" function="internal">
        <lane id=":1263_0_0" index="0" speed="8.96" length="18.06" shape="2106.40,1954.80 2101.50,1954.10 2098.00,1952.00 2095.90,1948.50 2095.20,1943.60"/>
        <lane id=":1263_0_1" index="1" speed="7.66" length="12.90" shape="2106.40,1951.60 2102.90,1951.10 2100.40,1949.60 2098.90,1947.10 2098.40,1943.60"/>
    </edge>
    <edge id=":1263_2" function="internal">
        <lane id=":1263_2_0" index="0" speed="3.90" length="2.58" shape="2104.80,1943.60 2104.90,1944.30 2105.20,1944.80 2105.70,1945.10 2106.40,1945.20"/>
        <lane id=":1263_2_1" index="1" speed="6.08" length="7.74" shape="2101.60,1943.60 2101.90,1945.70 2102.80,1947.20 2104.30,1948.10 2106.40,1948.40"/>
    </edge>
    <edge id=":1267_0" function="internal">
        <lane id=":1267_0_0" index="0" speed="8.96" length="18.06" shape="2395.20,1506.40 2395.90,1501.50 2398.00,1498.00 2401.50,1495.90 2406.40,1495.20"/>
        <lane id=":1267_0_1" index="1" speed="7.66" length="12.90" shape="2398.40,1506.40 2398.90,1502.90 2400.40,1500.40 2402.90,1498.90 2406.40,1498.40"/>
    </edge>
    <edge id=":1267_2" function="internal">
        <lane id=":1267_2_0" index="0" speed="3.90" length="2.58" shape="2406.40,1504.80 2405.70,1504.90 2405.20,1505.20 2404.90,1505.70 2404.80,1506.40"/>
        <lane id=":1267_2_1" index="1" speed="6.08" length="7.74" shape="2406.40,1501.60 2404.30,1501.90 2402.80,1502.80 2401.90,1504.30 2401.60,1506.40"/>
    </edge>
    <edge id=":1278_0" function="internal">
        <lane id=":1278_0_0" index="0" speed="13.89" length="0.10" shape="745.20,300.00 745.20,300.00"/>
        <lane id=":1278_0_1" index="1" speed="13.89" length="0.10" shape="748.40,300.00 748.40,300.00"/>
    </edge>
    <edge id=":1278_2" function="internal">
        <lane id=":1278_2_0" index="0" speed="13.89" length="0.10" shape="754.80,300.00 754.80,300.00"/>
        <lane id=":1278_2_1" index="1" speed="13.89" length="0.10" shape="751.60,300.00 751.60,300.00"/>
    </edge>
    <edge id=":1282_0" function="internal">
        <lane id=":1282_0_0" index="0" speed="8.96" length="18.06" shape="904.80,443.60 904.10,448.50 902.00,452.00 898.50,454.10 893.60,454.80"/>
        <lane id=":1282_0_1" index="1" speed="7.66" length="12.90" shape="901.60,443.60 901.10,447.10 899.60,449.60 897.10,451.10 893.60,451.60"/>
    </edge>
    <edge id=":1282_2" function="internal">
        <lane id=":1282_2_0" index="0" speed="3.90" length="2.58" shape="893.60,445.20 894.30,445.10 894.80,444.80 895.10,444.30 895.20,443.60"/>
        <lane id=":1282_2_1" index="1" speed="6.08" length="7.74" shape="893.60,448.40 895.70,448.10 897.20,447.20 898.10,445.70 898.40,443.60"/>
    </edge>
    <edge id=":1393_0" function="internal">
        <lane id=":1393_0_0" index="0" speed="13.89" length="0.10" shape="2250.00,1954.80 2250.00,1954.80"/>
        <lane id=":1393_0_1" index="1" speed="13.89" length="0.10" shape="2250.00,1951.60 2250.00,1951.60"/>
    </edge>
    <edge id=":1393_2" function="internal">
        <lane id=":1393_2_0" index="0" speed="13.89" length="0.10" shape="2250.00,1945.20 2250.00,1945.20"/>
        <lane id=":1393_2_1" index="1" speed="13.89" length="0.10" shape="2250.00,1948.40 2250.00,1948.40"/>
    </edge>
    <edge id=":1395_0" function="internal">
        <lane id=":1395_0_0" index="0" speed="3.90" length="2.58" shape="2545.20,1506.40 2545.10,1505.70 2544.80,1505.20 2544.30,1504.90 2543.60,1504.80"/>
        <lane id=":1395_0_1" index="1" speed="6.08" length="7.74" shape="2548.40,1506.40 2548.10,1504.30 2547.20,1502.80 2545.70,1501.90 2543.60,1501.60"/>
    </edge>
    <edge id=":1395_2" function="internal">
        <lane id=":1395_2_0" index="0" speed="8.96" length="18.06" shape="2543.60,1495.20 2548.50,1495.90 2552.00,1498.00 2554.10,1501.50 2554.80,1506.40"/>
        <lane id=":1395_2_1" index="1" speed="7.66" length="12.90" shape="2543.60,1498.40 2547.10,1498.90 2549.60,1500.40 2551.10,1502.90 2551.60,1506.40"/>
    </edge>
    <edge id=":14_0" function="internal">
        <lane id=":14_0_0" index="0" speed="8.96" length="18.06" shape="1354.80,2093.60 1354.10,2098.50 1352.00,2102.00 1348.50,2104.10 1343.60,2104.80"/>
        <lane id=":14_0_1" index="1" speed="7.66" length="12.90" shape="1351.60,2093.60 1351.10,2097.10 1349.60,2099.60 1347.10,2101.10 1343.60,2101.60"/>
    </edge>
    <edge id=":14_2" function="internal">
        <lane id=":14_2_0" index="0" speed="3.90" length="2.58" shape="1343.60,2095.20 1344.30,2095.10 1344.80,2094.80 1345.10,2094.30 1345.20,2093.60"/>
        <lane id=":14_2_1" index="1" speed="6.08" length="7.74" shape="1343.60,2098.40 1345.70,2098.10 1347.20,2097.20 1348.10,2095.70 1348.40,2093.60"/>
    </edge>
    <edge id=":1406_0" function="internal">
        <lane id=":1406_0_0" index="0" speed="13.89" length="20.80" shape="745.20,160.40 745.20,139.60"/>
        <lane id=":1406_0_1" index="1" speed="13.89" length="20.80" shape="748.40,160.40 748.40,139.60"/>
    </edge>
    <edge id=":1406_2" function="internal">
        <lane id=":1406_2_0" index="0" speed="9.26" length="5.01" shape="748.40,160.40 749.11,155.44"/>
    </edge>
    <edge id=":1406_3" function="internal">
        <lane id=":1406_3_0" index="0" speed="3.65" length="1.44" shape="748.40,160.40 749.20,159.20"/>
    </edge>
    <edge id=":1406_12" function="internal">
        <lane id=":1406_12_0" index="0" speed="9.26" length="14.34" shape="749.11,155.44 749.15,155.15 751.40,151.40 755.15,149.15 760.40,148.40"/>
    </edge>
    <edge id=":1406_13" function="internal">
        <lane id=":1406_13_0" index="0" speed="3.65" length="3.23" shape="749.20,159.20 750.00,158.80 750.80,159.20 751.60,160.40"/>
    </edge>
    <edge id=":1406_4" function="internal">
        <lane id=":1406_4_0" index="0" speed="6.51" length="9.03" shape="760.40,154.80 757.95,155.15 756.20,156.20 755.15,157.95 754.80,160.40"/>
        <lane id=":1406_4_1" index="1" speed="8.00" length="14.19" shape="760.40,151.60 756.55,152.15 753.80,153.80 752.15,156.55 751.60,160.40"/>
    </edge>
    <edge id=":1406_6" function="internal">
        <lane id=":1406_6_0" index="0" speed="9.26" length="19.35" shape="760.40,151.60 755.15,150.85 751.40,148.60 749.15,144.85 748.40,139.60"/>
    </edge>
    <edge id=":1406_7" function="internal">
        <lane id=":1406_7_0" index="0" speed="3.65" length="2.34" shape="760.40,151.60 759.20,150.80 758.80,150.00"/>
    </edge>
    <edge id=":1406_14" function="internal">
        <lane id=":1406_14_0" index="0" speed="3.65" length="2.34" shape="758.80,150.00 759.20,149.20 760.40,148.40"/>
    </edge>
    <edge id=":1406_8" function="internal">
        <lane id=":1406_8_0" index="0" speed="6.51" length="9.03" shape="754.80,139.60 755.15,142.05 756.20,143.80 757.95,144.85 760.40,145.20"/>
    </edge>
    <edge id=":1406_9" function="internal">
        <lane id=":1406_9_0" index="0" speed="13.89" length="20.80" shape="754.80,139.60 754.80,160.40"/>
        <lane id=":1406_9_1" index="1" speed="13.89" length="20.80" shape="751.60,139.60 751.60,160.40"/>
    </edge>
    <edge id=":1406_11" function="internal">
        <lane id=":1406_11_0" index="0" speed="3.65" length="1.44" shape="751.60,139.60 750.80,140.80"/>
    </edge>
    <edge id=":1406_15" function="internal">
        <lane id=":1406_15_0" index="0" speed="3.65" length="3.23" shape="750.80,140.80 750.00,141.20 749.20,140.80 748.40,139.60"/>
    </edge>
    <edge id=":1416_0" function="internal">
        <lane id=":1416_0_0" index="0" speed="13.89" length="0.10" shape="1050.00,2254.80 1050.00,2254.80"/>
        <lane id=":1416_0_1" index="1" speed="13.89" length="0.10" shape="1050.00,2251.60 1050.00,2251.60"/>
    </edge>
    <edge id=":1416_2" function="internal">
        <lane id=":1416_2_0" index="0" speed="13.89" length="0.10" shape="1050.00,2245.20 1050.00,2245.20"/>
        <lane id=":1416_2_1" index="1" speed="13.89" length="0.10" shape="1050.00,2248.40 1050.00,2248.40"/>
    </edge>
    <edge id=":1421_0" function="internal">
        <lane id=":1421_0_0" index="0" speed="8.96" length="18.06" shape="2404.80,1943.60 2404.10,1948.50 2402.00,1952.00 2398.50,1954.10 2393.60,1954.80"/>
        <lane id=":1421_0_1" index="1" speed="7.66" length="12.90" shape="2401.60,1943.60 2401.10,1947.10 2399.60,1949.60 2397.10,1951.10 2393.60,1951.60"/>
    </edge>
    <edge id=":1421_2" function="internal">
        <lane id=":1421_2_0" index="0" speed="3.90" length="2.58" shape="2393.60,1945.20 2394.30,1945.10 2394.80,1944.80 2395.10,1944.30 2395.20,1943.60"/>
        <lane id=":1421_2_1" index="1" speed="6.08" length="7.74" shape="2393.60,1948.40 2395.70,1948.10 2397.20,1947.20 2398.10,1945.70 2398.40,1943.60"/>
    </edge>
    <edge id=":1427_0" function="internal">
        <lane id=":1427_0_0" index="0" speed="11.62" length="12.44" shape="2560.40,1654.80 2556.51,1655.01 2553.27,1655.62 2550.66,1656.65 2548.69,1658.10"/>
        <lane id=":1427_0_1" index="1" speed="12.84" length="15.27" shape="2560.40,1651.60 2555.86,1651.54 2552.61,1651.78 2549.76,1653.00 2546.43,1655.83"/>
    </edge>
    <edge id=":1427_2" function="internal">
        <lane id=":1427_2_0" index="0" speed="9.26" length="3.51" shape="2560.40,1651.60 2556.93,1651.10"/>
    </edge>
    <edge id=":1427_3" function="internal">
        <lane id=":1427_3_0" index="0" speed="3.65" length="1.44" shape="2560.40,1651.60 2559.20,1650.80"/>
    </edge>
    <edge id=":1427_12" function="internal">
        <lane id=":1427_12_0" index="0" speed="9.26" length="15.84" shape="2556.93,1651.10 2555.15,1650.85 2551.40,1648.60 2549.15,1644.85 2548.40,1639.60"/>
    </edge>
    <edge id=":1427_13" function="internal">
        <lane id=":1427_13_0" index="0" speed="3.65" length="3.23" shape="2559.20,1650.80 2558.80,1650.00 2559.20,1649.20 2560.40,1648.40"/>
    </edge>
    <edge id=":1427_4" function="internal">
        <lane id=":1427_4_0" index="0" speed="6.51" length="9.03" shape="2554.80,1639.60 2555.15,1642.05 2556.20,1643.80 2557.95,1644.85 2560.40,1645.20"/>
    </edge>
    <edge id=":1427_5" function="internal">
        <lane id=":1427_5_0" index="0" speed="13.89" length="19.96" shape="2554.80,1639.60 2554.42,1645.40 2553.27,1650.42 2551.36,1654.65 2548.69,1658.10"/>
        <lane id=":1427_5_1" index="1" speed="13.70" length="17.45" shape="2551.60,1639.60 2551.28,1644.76 2550.31,1649.19 2548.69,1652.88 2546.43,1655.83"/>
    </edge>
    <edge id=":1427_7" function="internal">
        <lane id=":1427_7_0" index="0" speed="3.65" length="1.44" shape="2551.60,1639.60 2550.80,1640.80"/>
    </edge>
    <edge id=":1427_14" function="internal">
        <lane id=":1427_14_0" index="0" speed="3.65" length="3.23" shape="2550.80,1640.80 2550.00,1641.20 2549.20,1640.80 2548.40,1639.60"/>
    </edge>
    <edge id=":1427_8" function="internal">
        <lane id=":1427_8_0" index="0" speed="11.62" length="12.44" shape="2541.90,1651.31 2543.35,1649.34 2544.38,1646.73 2544.99,1643.49 2545.20,1639.60"/>
        <lane id=":1427_8_1" index="1" speed="12.70" length="14.95" shape="2544.17,1653.57 2546.02,1651.11 2547.34,1647.96 2548.14,1644.12 2548.40,1639.60"/>
    </edge>
    <edge id=":1427_10" function="internal">
        <lane id=":1427_10_0" index="0" speed="13.70" length="17.45" shape="2544.17,1653.57 2547.12,1651.31 2550.81,1649.69 2555.24,1648.72 2560.40,1648.40"/>
    </edge>
    <edge id=":1427_11" function="internal">
        <lane id=":1427_11_0" index="0" speed="3.65" length="1.44" shape="2544.17,1653.57 2545.58,1653.29"/>
    </edge>
    <edge id=":1427_15" function="internal">
        <lane id=":1427_15_0" index="0" speed="3.65" length="3.23" shape="2545.58,1653.29 2546.43,1653.57 2546.71,1654.42 2546.43,1655.83"/>
    </edge>
    <edge id=":1436_0" function="internal">
        <lane id=":1436_0_0" index="0" speed="3.90" length="2.58" shape="895.20,156.40 895.10,155.70 894.80,155.20 894.30,154.90 893.60,154.80"/>
        <lane id=":1436_0_1" index="1" speed="6.08" length="7.74" shape="898.40,156.40 898.10,154.30 897.20,152.80 895.70,151.90 893.60,151.60"/>
    </edge>
    <edge id=":1436_2" function="internal">
        <lane id=":1436_2_0" index="0" speed="8.96" length="18.06" shape="893.60,145.20 898.50,145.90 902.00,148.00 904.10,151.50 904.80,156.40"/>
        <lane id=":1436_2_1" index="1" speed="7.66" length="12.90" shape="893.60,148.40 897.10,148.90 899.60,150.40 901.10,152.90 901.60,156.40"/>
    </edge>
    <edge id=":1438_0" function="internal">
        <lane id=":1438_0_0" index="0" speed="3.65" length="4.67" shape="748.40,0.00 749.20,-1.20 750.00,-1.60 750.80,-1.20 751.60,0.00"/>
    </edge>
    <edge id=":1454_0" function="internal">
        <lane id=":1454_0_0" index="0" speed="6.51" length="9.03" shape="895.20,2260.40 894.85,2257.95 893.80,2256.20 892.05,2255.15 889.60,2254.80"/>
    </edge>
    <edge id=":1454_1" function="internal">
        <lane id=":1454_1_0" index="0" speed="13.89" length="20.80" shape="895.20,2260.40 895.20,2239.60"/>
        <lane id=":1454_1_1" index="1" speed="13.89" length="20.80" shape="898.40,2260.40 898.40,2239.60"/>
    </edge>
    <edge id=":1454_3" function="internal">
        <lane id=":1454_3_0" index="0" speed="9.26" length="5.01" shape="898.40,2260.40 899.11,2255.44"/>
    </edge>
    <edge id=":1454_4" function="internal">