<?xml version="1.0" encoding="UTF-8"?>

<!-- generated on 2024-11-07 16:58:43 by Eclipse SUMO netedit Version 1.21.0
<neteditConfiguration xmlns:xsi="http://www.w3.org/2001/XMLSchema-instance" xsi:noNamespaceSchemaLocation="http://sumo.dlr.de/xsd/neteditConfiguration.xsd">

    <input>
        <sumocfg-file value="/home/roman/Car-Traffic-RL-Scheduler/src/sumocfg/spider.sumocfg"/>
        <sumo-net-file value="generated-nets/spider-nets/spider0.net.xml"/>
    </input>

    <output>
        <output-file value="generated-nets/spider-nets/spider0.net.xml"/>
    </output>

    <processing>
        <geometry.min-radius.fix.railways value="false"/>
        <geometry.max-grade.fix value="false"/>
        <offset.disable-normalization value="true"/>
        <lefthand value="0"/>
    </processing>

    <junctions>
        <no-turnarounds value="true"/>
        <junctions.corner-detail value="5"/>
        <junctions.limit-turn-speed value="5.50"/>
        <rectangular-lane-cut value="0"/>
    </junctions>

    <pedestrian>
        <walkingareas value="0"/>
    </pedestrian>

</neteditConfiguration>
-->

<net version="1.20" junctionCornerDetail="5" limitTurnSpeed="5.50" xmlns:xsi="http://www.w3.org/2001/XMLSchema-instance" xsi:noNamespaceSchemaLocation="http://sumo.dlr.de/xsd/net_file.xsd">

    <location netOffset="1189.28,1286.90" convBoundary="0.00,0.00,2509.28,2573.81" origBoundary="-1189.28,-1286.90,1320.00,1286.90" projParameter="!"/>

    <edge id=":A1_0" function="internal">
        <lane id=":A1_0_0" index="0" speed="5.54" length="9.46" shape="1194.67,1296.22 1192.57,1294.16 1190.83,1293.71 1189.47,1294.87 1188.47,1297.63"/>
    </edge>
    <edge id=":A1_1" function="internal">
        <lane id=":A1_1_0" index="0" speed="9.25" length="16.01" shape="1194.67,1296.22 1191.58,1293.27 1188.17,1291.74 1184.44,1291.64 1180.38,1292.96"/>
    </edge>
    <edge id=":A1_2" function="internal">
        <lane id=":A1_2_0" index="0" speed="13.89" length="20.14" shape="1194.67,1296.22 1191.54,1292.92 1187.35,1289.32 1182.91,1286.04 1178.99,1283.72"/>
    </edge>
    <edge id=":A1_3" function="internal">
        <lane id=":A1_3_0" index="0" speed="13.89" length="21.56" shape="1194.67,1296.22 1192.05,1292.23 1189.26,1286.91 1186.84,1281.41 1185.35,1276.88"/>
    </edge>
    <edge id=":A1_4" function="internal">
        <lane id=":A1_4_0" index="0" speed="10.38" length="20.36" shape="1194.67,1296.22 1191.88,1291.56 1190.95,1286.90 1191.88,1282.24 1194.67,1277.58"/>
    </edge>
    <edge id=":A1_5" function="internal">
        <lane id=":A1_5_0" index="0" speed="6.53" length="13.76" shape="1194.67,1296.22 1193.86,1293.18 1194.84,1289.58 1197.04,1286.56 1199.93,1285.30"/>
    </edge>
    <edge id=":A1_6" function="internal">
        <lane id=":A1_6_0" index="0" speed="3.65" length="4.67" shape="1194.67,1296.22 1194.54,1294.78 1194.92,1293.97 1195.79,1293.79 1197.17,1294.23"/>
    </edge>
    <edge id=":A1_7" function="internal">
        <lane id=":A1_7_0" index="0" speed="5.54" length="9.46" shape="1199.93,1288.50 1197.01,1288.86 1195.57,1289.93 1195.63,1291.72 1197.17,1294.23"/>
    </edge>
    <edge id=":A1_8" function="internal">
        <lane id=":A1_8_0" index="0" speed="9.25" length="16.00" shape="1199.93,1288.50 1195.70,1289.07 1192.38,1290.78 1189.97,1293.64 1188.47,1297.63"/>
    </edge>
    <edge id=":A1_9" function="internal">
        <lane id=":A1_9_0" index="0" speed="13.89" length="20.14" shape="1199.93,1288.50 1195.40,1288.89 1189.97,1289.92 1184.63,1291.35 1180.38,1292.96"/>
    </edge>
    <edge id=":A1_10" function="internal">
        <lane id=":A1_10_0" index="0" speed="13.89" length="21.56" shape="1199.93,1288.50 1195.18,1288.06 1189.27,1286.93 1183.46,1285.38 1178.99,1283.72"/>
    </edge>
    <edge id=":A1_11" function="internal">
        <lane id=":A1_11_0" index="0" speed="10.38" length="20.36" shape="1199.93,1288.50 1194.54,1287.77 1190.32,1285.59 1187.26,1281.96 1185.35,1276.88"/>
    </edge>
    <edge id=":A1_12" function="internal">
        <lane id=":A1_12_0" index="0" speed="6.53" length="13.76" shape="1199.93,1288.50 1197.04,1287.24 1194.84,1284.22 1193.86,1280.62 1194.67,1277.58"/>
    </edge>
    <edge id=":A1_13" function="internal">
        <lane id=":A1_13_0" index="0" speed="3.65" length="4.67" shape="1199.93,1288.50 1198.73,1287.70 1198.33,1286.90 1198.73,1286.10 1199.93,1285.30"/>
    </edge>
    <edge id=":A1_14" function="internal">
        <lane id=":A1_14_0" index="0" speed="5.54" length="9.46" shape="1197.17,1279.58 1195.63,1282.08 1195.57,1283.87 1197.01,1284.94 1199.93,1285.30"/>
    </edge>
    <edge id=":A1_15" function="internal">
        <lane id=":A1_15_0" index="0" speed="9.25" length="16.00" shape="1197.17,1279.58 1194.98,1283.24 1194.25,1286.90 1194.98,1290.56 1197.17,1294.23"/>
    </edge>
    <edge id=":A1_16" function="internal">
        <lane id=":A1_16_0" index="0" speed="13.89" length="20.14" shape="1197.17,1279.58 1194.65,1283.36 1192.07,1288.24 1189.86,1293.31 1188.47,1297.63"/>
    </edge>
    <edge id=":A1_17" function="internal">
        <lane id=":A1_17_0" index="0" speed="13.89" length="21.56" shape="1197.17,1279.58 1193.86,1283.01 1189.30,1286.92 1184.47,1290.50 1180.38,1292.96"/>
    </edge>
    <edge id=":A1_18" function="internal">
        <lane id=":A1_18_0" index="0" speed="10.38" length="20.36" shape="1197.17,1279.58 1193.25,1283.33 1188.91,1285.27 1184.16,1285.40 1178.99,1283.72"/>
    </edge>
    <edge id=":A1_19" function="internal">
        <lane id=":A1_19_0" index="0" speed="6.53" length="13.76" shape="1197.17,1279.58 1194.39,1281.04 1190.65,1280.89 1187.22,1279.41 1185.35,1276.88"/>
    </edge>
    <edge id=":A1_20" function="internal">
        <lane id=":A1_20_0" index="0" speed="3.65" length="4.67" shape="1197.17,1279.58 1195.79,1280.01 1194.92,1279.83 1194.54,1279.02 1194.67,1277.58"/>
    </edge>
    <edge id=":A1_21" function="internal">
        <lane id=":A1_21_0" index="0" speed="5.54" length="9.46" shape="1188.47,1276.17 1189.47,1278.93 1190.83,1280.09 1192.57,1279.64 1194.67,1277.58"/>
    </edge>
    <edge id=":A1_22" function="internal">
        <lane id=":A1_22_0" index="0" speed="9.25" length="16.00" shape="1188.47,1276.17 1189.97,1280.16 1192.38,1283.02 1195.70,1284.73 1199.93,1285.30"/>
    </edge>
    <edge id=":A1_23" function="internal">
        <lane id=":A1_23_0" index="0" speed="13.89" length="20.14" shape="1188.47,1276.17 1189.86,1280.49 1192.07,1285.56 1194.65,1290.44 1197.17,1294.23"/>
    </edge>
    <edge id=":A1_24" function="internal">
        <lane id=":A1_24_0" index="0" speed="13.89" length="21.56" shape="1188.47,1276.17 1189.10,1280.89 1189.31,1286.90 1189.10,1292.91 1188.47,1297.63"/>
    </edge>
    <edge id=":A1_25" function="internal">
        <lane id=":A1_25_0" index="0" speed="10.38" length="20.36" shape="1188.47,1276.17 1188.96,1281.57 1187.78,1286.18 1184.92,1289.97 1180.38,1292.96"/>
    </edge>
    <edge id=":A1_26" function="internal">
        <lane id=":A1_26_0" index="0" speed="6.53" length="13.76" shape="1188.47,1276.17 1187.88,1279.26 1185.44,1282.08 1182.14,1283.84 1178.99,1283.72"/>
    </edge>
    <edge id=":A1_27" function="internal">
        <lane id=":A1_27_0" index="0" speed="3.65" length="4.67" shape="1188.47,1276.17 1187.96,1277.51 1187.27,1278.08 1186.40,1277.87 1185.35,1276.88"/>
    </edge>
    <edge id=":A1_28" function="internal">
        <lane id=":A1_28_0" index="0" speed="5.54" length="9.46" shape="1180.38,1280.84 1183.17,1281.78 1184.92,1281.44 1185.65,1279.80 1185.35,1276.88"/>
    </edge>
    <edge id=":A1_29" function="internal">
        <lane id=":A1_29_0" index="0" speed="9.25" length="16.01" shape="1180.38,1280.84 1184.44,1282.16 1188.17,1282.06 1191.58,1280.53 1194.67,1277.58"/>
    </edge>
    <edge id=":A1_30" function="internal">
        <lane id=":A1_30_0" index="0" speed="13.89" length="20.14" shape="1180.38,1280.84 1184.63,1282.45 1189.97,1283.88 1195.40,1284.91 1199.93,1285.30"/>
    </edge>
    <edge id=":A1_31" function="internal">
        <lane id=":A1_31_0" index="0" speed="13.89" length="21.56" shape="1180.38,1280.84 1184.47,1283.30 1189.30,1286.88 1193.86,1290.79 1197.17,1294.23"/>
    </edge>
    <edge id=":A1_32" function="internal">
        <lane id=":A1_32_0" index="0" speed="10.38" length="20.36" shape="1180.38,1280.84 1184.92,1283.83 1187.78,1287.62 1188.96,1292.23 1188.47,1297.63"/>
    </edge>
    <edge id=":A1_33" function="internal">
        <lane id=":A1_33_0" index="0" speed="6.53" length="13.76" shape="1180.38,1280.84 1182.43,1283.23 1183.11,1286.90 1182.43,1290.57 1180.38,1292.96"/>
    </edge>
    <edge id=":A1_34" function="internal">
        <lane id=":A1_34_0" index="0" speed="3.65" length="4.67" shape="1180.38,1280.84 1181.12,1282.08 1181.13,1282.98 1180.42,1283.52 1178.99,1283.72"/>
    </edge>
    <edge id=":A1_35" function="internal">
        <lane id=":A1_35_0" index="0" speed="5.54" length="9.46" shape="1178.99,1290.08 1181.47,1288.49 1182.29,1286.90 1181.47,1285.31 1178.99,1283.72"/>
    </edge>
    <edge id=":A1_36" function="internal">
        <lane id=":A1_36_0" index="0" speed="9.25" length="16.00" shape="1178.99,1290.08 1182.56,1287.73 1184.80,1284.74 1185.74,1281.13 1185.35,1276.88"/>
    </edge>
    <edge id=":A1_37" function="internal">
        <lane id=":A1_37_0" index="0" speed="13.89" length="20.14" shape="1178.99,1290.08 1182.91,1287.76 1187.35,1284.48 1191.54,1280.88 1194.67,1277.58"/>
    </edge>
    <edge id=":A1_38" function="internal">
        <lane id=":A1_38_0" index="0" speed="13.89" length="21.56" shape="1178.99,1290.08 1183.46,1288.42 1189.27,1286.88 1195.18,1285.74 1199.93,1285.30"/>
    </edge>
    <edge id=":A1_39" function="internal">
        <lane id=":A1_39_0" index="0" speed="10.38" length="20.36" shape="1178.99,1290.08 1184.16,1288.40 1188.91,1288.53 1193.24,1290.47 1197.17,1294.23"/>
    </edge>
    <edge id=":A1_40" function="internal">
        <lane id=":A1_40_0" index="0" speed="6.53" length="13.76" shape="1178.99,1290.08 1182.14,1289.96 1185.44,1291.72 1187.88,1294.55 1188.47,1297.63"/>
    </edge>
    <edge id=":A1_41" function="internal">
        <lane id=":A1_41_0" index="0" speed="3.65" length="4.67" shape="1178.99,1290.08 1180.42,1290.28 1181.13,1290.82 1181.12,1291.72 1180.38,1292.96"/>
    </edge>
    <edge id=":A1_42" function="internal">
        <lane id=":A1_42_0" index="0" speed="5.54" length="9.46" shape="1185.35,1296.92 1185.65,1294.00 1184.92,1292.36 1183.17,1292.02 1180.38,1292.96"/>
    </edge>
    <edge id=":A1_43" function="internal">
        <lane id=":A1_43_0" index="0" speed="9.25" length="16.01" shape="1185.35,1296.92 1185.74,1292.67 1184.80,1289.06 1182.56,1286.07 1178.99,1283.72"/>
    </edge>
    <edge id=":A1_44" function="internal">
        <lane id=":A1_44_0" index="0" speed="13.89" length="20.14" shape="1185.35,1296.92 1185.98,1292.42 1186.19,1286.90 1185.98,1281.38 1185.35,1276.88"/>
    </edge>
    <edge id=":A1_45" function="internal">
        <lane id=":A1_45_0" index="0" speed="13.89" length="21.56" shape="1185.35,1296.92 1186.84,1292.39 1189.26,1286.89 1192.05,1281.57 1194.67,1277.58"/>
    </edge>
    <edge id=":A1_46" function="internal">
        <lane id=":A1_46_0" index="0" speed="10.38" length="20.36" shape="1185.35,1296.92 1187.26,1291.84 1190.32,1288.21 1194.54,1286.03 1199.93,1285.30"/>
    </edge>
    <edge id=":A1_47" function="internal">
        <lane id=":A1_47_0" index="0" speed="6.53" length="13.76" shape="1185.35,1296.92 1187.22,1294.40 1190.65,1292.91 1194.39,1292.76 1197.17,1294.23"/>
    </edge>
    <edge id=":A1_48" function="internal">
        <lane id=":A1_48_0" index="0" speed="3.65" length="4.67" shape="1185.35,1296.92 1186.40,1295.93 1187.27,1295.72 1187.96,1296.29 1188.47,1297.63"/>
    </edge>
    <edge id=":B1_0" function="internal">
        <lane id=":B1_0_0" index="0" speed="8.94" length="11.80" shape="1295.29,1288.50 1292.88,1288.96 1290.66,1290.32 1288.62,1292.60 1286.78,1295.79"/>
    </edge>
    <edge id=":B1_1" function="internal">
        <lane id=":B1_1_0" index="0" speed="13.89" length="15.10" shape="1295.29,1288.50 1280.19,1288.50"/>
    </edge>
    <edge id=":B1_2" function="internal">
        <lane id=":B1_2_0" index="0" speed="10.14" length="3.58" shape="1295.29,1288.50 1291.95,1287.93 1291.78,1287.84"/>
    </edge>
    <edge id=":B1_3" function="internal">
        <lane id=":B1_3_0" index="0" speed="3.65" length="1.44" shape="1295.29,1288.50 1294.09,1287.70"/>
    </edge>
    <edge id=":B1_16" function="internal">
        <lane id=":B1_16_0" index="0" speed="10.14" length="11.81" shape="1291.78,1287.84 1288.93,1286.23 1286.25,1283.38 1283.89,1279.40"/>
    </edge>
    <edge id=":B1_17" function="internal">
        <lane id=":B1_17_0" index="0" speed="3.65" length="3.23" shape="1294.09,1287.70 1293.69,1286.90 1294.09,1286.10 1295.29,1285.30"/>
    </edge>
    <edge id=":B1_4" function="internal">
        <lane id=":B1_4_0" index="0" speed="8.94" length="11.80" shape="1286.78,1278.01 1288.62,1281.20 1290.66,1283.48 1292.88,1284.84 1295.29,1285.30"/>
    </edge>
    <edge id=":B1_5" function="internal">
        <lane id=":B1_5_0" index="0" speed="12.79" length="18.40" shape="1286.78,1278.01 1288.38,1282.46 1288.92,1286.90 1288.38,1291.34 1286.78,1295.79"/>
    </edge>
    <edge id=":B1_6" function="internal">
        <lane id=":B1_6_0" index="0" speed="7.44" length="16.31" shape="1286.78,1278.01 1288.26,1282.60 1287.65,1285.88 1284.96,1287.84 1280.19,1288.50"/>
    </edge>
    <edge id=":B1_7" function="internal">
        <lane id=":B1_7_0" index="0" speed="3.65" length="4.67" shape="1286.78,1278.01 1286.58,1279.44 1286.03,1280.15 1285.13,1280.14 1283.89,1279.40"/>
    </edge>
    <edge id=":B1_8" function="internal">
        <lane id=":B1_8_0" index="0" speed="5.75" length="9.17" shape="1280.19,1285.30 1282.87,1284.93 1284.39,1283.83 1284.73,1281.98 1283.89,1279.40"/>
    </edge>
    <edge id=":B1_9" function="internal">
        <lane id=":B1_9_0" index="0" speed="13.89" length="15.10" shape="1280.19,1285.30 1295.29,1285.30"/>
    </edge>
    <edge id=":B1_10" function="internal">
        <lane id=":B1_10_0" index="0" speed="7.44" length="4.82" shape="1280.19,1285.30 1284.96,1285.96"/>
    </edge>
    <edge id=":B1_11" function="internal">
        <lane id=":B1_11_0" index="0" speed="3.65" length="1.44" shape="1280.19,1285.30 1281.39,1286.10"/>
    </edge>
    <edge id=":B1_18" function="internal">
        <lane id=":B1_18_0" index="0" speed="7.44" length="11.49" shape="1284.96,1285.96 1287.65,1287.92 1288.26,1291.20 1286.78,1295.79"/>
    </edge>
    <edge id=":B1_19" function="internal">
        <lane id=":B1_19_0" index="0" speed="3.65" length="3.23" shape="1281.39,1286.10 1281.79,1286.90 1281.39,1287.70 1280.19,1288.50"/>
    </edge>
    <edge id=":B1_12" function="internal">
        <lane id=":B1_12_0" index="0" speed="5.75" length="9.17" shape="1283.89,1294.40 1284.73,1291.82 1284.39,1289.97 1282.87,1288.87 1280.19,1288.50"/>
    </edge>
    <edge id=":B1_13" function="internal">
        <lane id=":B1_13_0" index="0" speed="11.78" length="15.52" shape="1283.89,1294.40 1285.25,1290.65 1285.70,1286.90 1285.25,1283.15 1283.89,1279.40"/>
    </edge>
    <edge id=":B1_14" function="internal">
        <lane id=":B1_14_0" index="0" speed="10.14" length="15.39" shape="1283.89,1294.40 1286.25,1290.42 1288.93,1287.57 1291.95,1285.87 1295.29,1285.30"/>
    </edge>
    <edge id=":B1_15" function="internal">
        <lane id=":B1_15_0" index="0" speed="3.65" length="4.67" shape="1283.89,1294.40 1285.14,1293.66 1286.03,1293.65 1286.58,1294.36 1286.78,1295.79"/>
    </edge>
    <edge id=":B2_0" function="internal">
        <lane id=":B2_0_0" index="0" speed="8.94" length="11.80" shape="1254.13,1370.79 1252.27,1369.19 1249.82,1368.30 1246.77,1368.13 1243.12,1368.67"/>
    </edge>
    <edge id=":B2_1" function="internal">
        <lane id=":B2_1_0" index="0" speed="13.89" length="15.10" shape="1254.13,1370.79 1244.71,1358.98"/>
    </edge>
    <edge id=":B2_2" function="internal">
        <lane id=":B2_2_0" index="0" speed="10.14" length="3.58" shape="1254.13,1370.79 1252.49,1367.82 1252.46,1367.63"/>
    </edge>
    <edge id=":B2_3" function="internal">
        <lane id=":B2_3_0" index="0" speed="3.65" length="1.44" shape="1254.13,1370.79 1254.00,1369.35"/>
    </edge>
    <edge id=":B2_16" function="internal">
        <lane id=":B2_16_0" index="0" speed="10.14" length="11.81" shape="1252.46,1367.63 1251.94,1364.40 1252.49,1360.53 1254.13,1356.20"/>
    </edge>
    <edge id=":B2_17" function="internal">
        <lane id=":B2_17_0" index="0" speed="3.65" length="3.23" shape="1254.00,1369.35 1254.38,1368.54 1255.25,1368.35 1256.63,1368.79"/>
    </edge>
    <edge id=":B2_4" function="internal">
        <lane id=":B2_4_0" index="0" speed="8.94" length="11.80" shape="1257.02,1357.59 1255.68,1361.02 1255.17,1364.03 1255.48,1366.62 1256.63,1368.79"/>
    </edge>
    <edge id=":B2_5" function="internal">
        <lane id=":B2_5_0" index="0" speed="12.79" length="18.40" shape="1257.02,1357.59 1254.54,1361.62 1251.40,1364.81 1247.60,1367.16 1243.12,1368.67"/>
    </edge>
    <edge id=":B2_6" function="internal">
        <lane id=":B2_6_0" index="0" speed="7.44" length="16.31" shape="1257.02,1357.59 1254.35,1361.61 1251.41,1363.18 1248.20,1362.30 1244.71,1358.98"/>
    </edge>
    <edge id=":B2_7" function="internal">
        <lane id=":B2_7_0" index="0" speed="3.65" length="4.67" shape="1257.02,1357.59 1255.78,1358.33 1254.88,1358.34 1254.33,1357.63 1254.13,1356.20"/>
    </edge>
    <edge id=":B2_8" function="internal">
        <lane id=":B2_8_0" index="0" speed="5.75" length="9.17" shape="1247.21,1356.98 1249.17,1358.85 1250.98,1359.35 1252.64,1358.46 1254.13,1356.20"/>
    </edge>
    <edge id=":B2_9" function="internal">
        <lane id=":B2_9_0" index="0" speed="13.89" length="15.10" shape="1247.21,1356.98 1256.63,1368.79"/>
    </edge>
    <edge id=":B2_10" function="internal">
        <lane id=":B2_10_0" index="0" speed="7.44" length="4.82" shape="1247.21,1356.98 1249.68,1361.13"/>
    </edge>
    <edge id=":B2_11" function="internal">
        <lane id=":B2_11_0" index="0" speed="3.65" length="1.44" shape="1247.21,1356.98 1247.33,1358.42"/>
    </edge>
    <edge id=":B2_18" function="internal">
        <lane id=":B2_18_0" index="0" speed="7.44" length="11.49" shape="1249.68,1361.13 1249.82,1364.46 1247.63,1366.97 1243.12,1368.67"/>
    </edge>
    <edge id=":B2_19" function="internal">
        <lane id=":B2_19_0" index="0" speed="3.65" length="3.23" shape="1247.33,1358.42 1246.96,1359.23 1246.08,1359.42 1244.71,1358.98"/>
    </edge>
    <edge id=":B2_12" function="internal">
        <lane id=":B2_12_0" index="0" speed="5.75" length="9.17" shape="1242.41,1365.55 1244.95,1364.60 1246.18,1363.18 1246.10,1361.31 1244.71,1358.98"/>
    </edge>
    <edge id=":B2_13" function="internal">
        <lane id=":B2_13_0" index="0" speed="11.78" length="15.52" shape="1242.41,1365.55 1246.18,1364.27 1249.40,1362.29 1252.05,1359.60 1254.13,1356.20"/>
    </edge>
    <edge id=":B2_14" function="internal">
        <lane id=":B2_14_0" index="0" speed="10.14" length="15.39" shape="1242.41,1365.55 1246.99,1364.91 1250.89,1365.24 1254.10,1366.53 1256.63,1368.79"/>
    </edge>
    <edge id=":B2_15" function="internal">
        <lane id=":B2_15_0" index="0" speed="3.65" length="4.67" shape="1242.41,1365.55 1243.76,1366.07 1244.33,1366.76 1244.11,1367.63 1243.12,1368.67"/>
    </edge>
    <edge id=":B3_0" function="internal">
        <lane id=":B3_0_0" index="0" speed="8.94" length="11.80" shape="1176.25,1383.94 1172.73,1385.03 1170.06,1386.51 1168.23,1388.37 1167.25,1390.62"/>
    </edge>
    <edge id=":B3_1" function="internal">
        <lane id=":B3_1_0" index="0" speed="12.79" length="18.40" shape="1176.25,1383.94 1171.56,1384.51 1167.11,1384.05 1162.90,1382.53 1158.92,1379.98"/>
    </edge>
    <edge id=":B3_2" function="internal">
        <lane id=":B3_2_0" index="0" speed="7.44" length="16.31" shape="1176.25,1383.94 1171.45,1384.36 1168.39,1383.04 1167.07,1379.98 1167.49,1375.18"/>
    </edge>
    <edge id=":B3_3" function="internal">
        <lane id=":B3_3_0" index="0" speed="3.65" length="4.67" shape="1176.25,1383.94 1174.90,1383.42 1174.33,1382.73 1174.55,1381.86 1175.54,1380.82"/>
    </edge>
    <edge id=":B3_4" function="internal">
        <lane id=":B3_4_0" index="0" speed="5.75" length="9.17" shape="1170.61,1375.89 1170.37,1378.59 1171.12,1380.31 1172.84,1381.06 1175.54,1380.82"/>
    </edge>
    <edge id=":B3_5" function="internal">
        <lane id=":B3_5_0" index="0" speed="13.89" length="15.10" shape="1170.61,1375.89 1167.25,1390.62"/>
    </edge>
    <edge id=":B3_6" function="internal">
        <lane id=":B3_6_0" index="0" speed="7.44" length="4.82" shape="1170.61,1375.89 1168.91,1380.40"/>
    </edge>
    <edge id=":B3_7" function="internal">
        <lane id=":B3_7_0" index="0" speed="3.65" length="1.44" shape="1170.61,1375.89 1169.57,1376.88"/>
    </edge>
    <edge id=":B3_16" function="internal">
        <lane id=":B3_16_0" index="0" speed="7.44" length="11.49" shape="1168.91,1380.40 1166.40,1382.59 1163.07,1382.45 1158.92,1379.98"/>
    </edge>
    <edge id=":B3_17" function="internal">
        <lane id=":B3_17_0" index="0" speed="3.65" length="3.23" shape="1169.57,1376.88 1168.70,1377.09 1168.01,1376.53 1167.49,1375.18"/>
    </edge>
    <edge id=":B3_8" function="internal">
        <lane id=":B3_8_0" index="0" speed="5.75" length="9.17" shape="1160.92,1377.48 1163.25,1378.87 1165.12,1378.95 1166.54,1377.72 1167.49,1375.18"/>
    </edge>
    <edge id=":B3_9" function="internal">
        <lane id=":B3_9_0" index="0" speed="11.78" length="15.52" shape="1160.92,1377.48 1164.27,1379.63 1167.83,1380.91 1171.58,1381.30 1175.54,1380.82"/>
    </edge>
    <edge id=":B3_10" function="internal">
        <lane id=":B3_10_0" index="0" speed="10.14" length="15.39" shape="1160.92,1377.48 1164.27,1380.66 1166.45,1383.91 1167.44,1387.23 1167.25,1390.62"/>
    </edge>
    <edge id=":B3_11" function="internal">
        <lane id=":B3_11_0" index="0" speed="3.65" length="4.67" shape="1160.92,1377.48 1161.36,1378.85 1161.17,1379.73 1160.36,1380.10 1158.92,1379.98"/>
    </edge>
    <edge id=":B3_12" function="internal">
        <lane id=":B3_12_0" index="0" speed="8.94" length="11.80" shape="1164.13,1389.90 1164.22,1387.45 1163.39,1384.98 1161.62,1382.49 1158.92,1379.98"/>
    </edge>
    <edge id=":B3_13" function="internal">
        <lane id=":B3_13_0" index="0" speed="13.89" length="15.10" shape="1164.13,1389.90 1167.49,1375.18"/>
    </edge>
    <edge id=":B3_14" function="internal">
        <lane id=":B3_14_0" index="0" speed="10.14" length="3.58" shape="1164.13,1389.90 1165.43,1386.77 1165.56,1386.63"/>
    </edge>
    <edge id=":B3_15" function="internal">
        <lane id=":B3_15_0" index="0" speed="3.65" length="1.44" shape="1164.13,1389.90 1165.18,1388.91"/>
    </edge>
    <edge id=":B3_18" function="internal">
        <lane id=":B3_18_0" index="0" speed="10.14" length="11.81" shape="1165.56,1386.63 1167.76,1384.21 1171.13,1382.23 1175.54,1380.82"/>
    </edge>
    <edge id=":B3_19" function="internal">
        <lane id=":B3_19_0" index="0" speed="3.65" length="3.23" shape="1165.18,1388.91 1166.05,1388.70 1166.74,1389.27 1167.25,1390.62"/>
    </edge>
    <edge id=":B4_0" function="internal">
        <lane id=":B4_0_0" index="0" speed="8.94" length="11.80" shape="1105.29,1337.21 1102.24,1335.14 1099.42,1333.97 1096.83,1333.70 1094.46,1334.34"/>
    </edge>
    <edge id=":B4_1" function="internal">
        <lane id=":B4_1_0" index="0" speed="12.79" length="18.40" shape="1105.29,1337.21 1101.92,1333.90 1099.51,1330.13 1098.06,1325.90 1097.58,1321.20"/>
    </edge>
    <edge id=":B4_2" function="internal">
        <lane id=":B4_2_0" index="0" speed="7.44" length="16.31" shape="1105.29,1337.21 1101.97,1333.72 1101.09,1330.50 1102.66,1327.57 1106.68,1324.90"/>
    </edge>
    <edge id=":B4_3" function="internal">
        <lane id=":B4_3_0" index="0" speed="3.65" length="4.67" shape="1105.29,1337.21 1104.85,1335.84 1105.04,1334.96 1105.85,1334.59 1107.29,1334.71"/>
    </edge>
    <edge id=":B4_4" function="internal">
        <lane id=":B4_4_0" index="0" speed="5.75" length="9.17" shape="1108.07,1327.79 1105.81,1329.28 1104.92,1330.94 1105.42,1332.75 1107.29,1334.71"/>
    </edge>
    <edge id=":B4_5" function="internal">
        <lane id=":B4_5_0" index="0" speed="13.89" length="15.10" shape="1108.07,1327.79 1094.46,1334.34"/>
    </edge>
    <edge id=":B4_6" function="internal">
        <lane id=":B4_6_0" index="0" speed="7.44" length="4.82" shape="1108.07,1327.79 1103.48,1329.27"/>
    </edge>
    <edge id=":B4_7" function="internal">
        <lane id=":B4_7_0" index="0" speed="3.65" length="1.44" shape="1108.07,1327.79 1106.64,1327.59"/>
    </edge>
    <edge id=":B4_16" function="internal">
        <lane id=":B4_16_0" index="0" speed="7.44" length="11.49" shape="1103.48,1329.27 1100.20,1328.66 1098.24,1325.97 1097.58,1321.20"/>
    </edge>
    <edge id=":B4_17" function="internal">
        <lane id=":B4_17_0" index="0" speed="3.65" length="3.23" shape="1106.64,1327.59 1105.93,1327.04 1105.94,1326.14 1106.68,1324.90"/>
    </edge>
    <edge id=":B4_8" function="internal">
        <lane id=":B4_8_0" index="0" speed="5.75" length="9.17" shape="1100.78,1321.20 1101.15,1323.88 1102.25,1325.40 1104.10,1325.74 1106.68,1324.90"/>
    </edge>
    <edge id=":B4_9" function="internal">
        <lane id=":B4_9_0" index="0" speed="11.78" length="15.52" shape="1100.78,1321.20 1101.19,1325.16 1102.41,1328.74 1104.44,1331.92 1107.29,1334.71"/>
    </edge>
    <edge id=":B4_10" function="internal">
        <lane id=":B4_10_0" index="0" speed="10.14" length="15.39" shape="1100.78,1321.20 1100.38,1325.81 1099.20,1329.53 1097.22,1332.38 1094.46,1334.34"/>
    </edge>
    <edge id=":B4_11" function="internal">
        <lane id=":B4_11_0" index="0" speed="3.65" length="4.67" shape="1100.78,1321.20 1099.98,1322.40 1099.18,1322.80 1098.38,1322.40 1097.58,1321.20"/>
    </edge>
    <edge id=":B4_12" function="internal">
        <lane id=":B4_12_0" index="0" speed="8.94" length="11.80" shape="1093.07,1331.46 1095.04,1330.00 1096.45,1327.81 1097.30,1324.87 1097.58,1321.20"/>
    </edge>
    <edge id=":B4_13" function="internal">
        <lane id=":B4_13_0" index="0" speed="13.89" length="15.10" shape="1093.07,1331.46 1106.68,1324.90"/>
    </edge>
    <edge id=":B4_14" function="internal">
        <lane id=":B4_14_0" index="0" speed="10.14" length="3.58" shape="1093.07,1331.46 1096.33,1330.52 1096.52,1330.53"/>
    </edge>
    <edge id=":B4_15" function="internal">
        <lane id=":B4_15_0" index="0" speed="3.65" length="1.44" shape="1093.07,1331.46 1094.50,1331.66"/>
    </edge>
    <edge id=":B4_18" function="internal">
        <lane id=":B4_18_0" index="0" speed="10.14" length="11.81" shape="1096.52,1330.53 1099.78,1330.75 1103.44,1332.14 1107.29,1334.71"/>
    </edge>
    <edge id=":B4_19" function="internal">
        <lane id=":B4_19_0" index="0" speed="3.65" length="3.23" shape="1094.50,1331.66 1095.21,1332.20 1095.19,1333.10 1094.46,1334.34"/>
    </edge>
    <edge id=":B5_0" function="internal">
        <lane id=":B5_0_0" index="0" speed="8.94" length="11.80" shape="1097.58,1252.61 1097.30,1248.94 1096.45,1246.00 1095.04,1243.81 1093.07,1242.35"/>
    </edge>
    <edge id=":B5_1" function="internal">
        <lane id=":B5_1_0" index="0" speed="12.79" length="18.40" shape="1097.58,1252.61 1098.06,1247.91 1099.51,1243.68 1101.92,1239.91 1105.29,1236.60"/>
    </edge>
    <edge id=":B5_2" function="internal">
        <lane id=":B5_2_0" index="0" speed="7.44" length="16.31" shape="1097.58,1252.61 1098.24,1247.84 1100.20,1245.15 1103.48,1244.54 1108.07,1246.02"/>
    </edge>
    <edge id=":B5_3" function="internal">
        <lane id=":B5_3_0" index="0" speed="3.65" length="4.67" shape="1097.58,1252.61 1098.38,1251.41 1099.18,1251.01 1099.98,1251.41 1100.78,1252.61"/>
    </edge>
    <edge id=":B5_4" function="internal">
        <lane id=":B5_4_0" index="0" speed="5.75" length="9.17" shape="1106.68,1248.91 1104.10,1248.07 1102.25,1248.41 1101.15,1249.93 1100.78,1252.61"/>
    </edge>
    <edge id=":B5_5" function="internal">
        <lane id=":B5_5_0" index="0" speed="13.89" length="15.10" shape="1106.68,1248.91 1093.07,1242.35"/>
    </edge>
    <edge id=":B5_6" function="internal">
        <lane id=":B5_6_0" index="0" speed="7.44" length="4.82" shape="1106.68,1248.91 1102.66,1246.24"/>
    </edge>
    <edge id=":B5_7" function="internal">
        <lane id=":B5_7_0" index="0" speed="3.65" length="1.44" shape="1106.68,1248.91 1105.94,1247.66"/>
    </edge>
    <edge id=":B5_16" function="internal">
        <lane id=":B5_16_0" index="0" speed="7.44" length="11.49" shape="1102.66,1246.24 1101.09,1243.30 1101.97,1240.09 1105.29,1236.60"/>
    </edge>
    <edge id=":B5_17" function="internal">
        <lane id=":B5_17_0" index="0" speed="3.65" length="3.23" shape="1105.94,1247.66 1105.93,1246.77 1106.64,1246.22 1108.07,1246.02"/>
    </edge>
    <edge id=":B5_8" function="internal">
        <lane id=":B5_8_0" index="0" speed="5.75" length="9.17" shape="1107.29,1239.10 1105.42,1241.06 1104.92,1242.87 1105.81,1244.53 1108.07,1246.02"/>
    </edge>
    <edge id=":B5_9" function="internal">
        <lane id=":B5_9_0" index="0" speed="11.78" length="15.52" shape="1107.29,1239.10 1104.44,1241.89 1102.41,1245.07 1101.19,1248.65 1100.78,1252.61"/>
    </edge>
    <edge id=":B5_10" function="internal">
        <lane id=":B5_10_0" index="0" speed="10.14" length="15.39" shape="1107.29,1239.10 1103.44,1241.67 1099.79,1243.06 1096.33,1243.29 1093.07,1242.35"/>
    </edge>
    <edge id=":B5_11" function="internal">
        <lane id=":B5_11_0" index="0" speed="3.65" length="4.67" shape="1107.29,1239.10 1105.85,1239.22 1105.04,1238.85 1104.85,1237.97 1105.29,1236.60"/>
    </edge>