<?xml version="1.0" encoding="UTF-8"?>

<!-- generated on 2024-11-08 16:01:38 by Eclipse SUMO netgenerate Version 1.21.0
<netgenerateConfiguration xmlns:xsi="http://www.w3.org/2001/XMLSchema-instance" xsi:noNamespaceSchemaLocation="http://sumo.dlr.de/xsd/netgenerateConfiguration.xsd">

    <spider_network>
        <spider value="true"/>
        <spider.omit-center value="false"/>
        <spider.attach-length value="100.0"/>
    </spider_network>

    <output>
        <output-file value="generated-nets/spider-nets/spider4.net.xml"/>
    </output>

</netgenerateConfiguration>
-->

<net version="1.20" junctionCornerDetail="5" limitTurnSpeed="5.50" xmlns:xsi="http://www.w3.org/2001/XMLSchema-instance" xsi:noNamespaceSchemaLocation="http://sumo.dlr.de/xsd/net_file.xsd">

    <location netOffset="540.58,584.96" convBoundary="0.00,0.00,1140.58,1169.91" origBoundary="-540.58,-584.96,600.00,584.96" projParameter="!"/>

    <edge id=":A1_0" function="internal">
        <lane id=":A1_0_0" index="0" speed="5.54" length="9.46" shape="545.97,594.28 543.87,592.22 542.14,591.77 540.77,592.93 539.77,595.69"/>
    </edge>
    <edge id=":A1_1" function="internal">
        <lane id=":A1_1_0" index="0" speed="9.25" length="16.00" shape="545.97,594.28 542.88,591.33 539.48,589.80 535.74,589.70 531.68,591.02"/>
    </edge>
    <edge id=":A1_2" function="internal">
        <lane id=":A1_2_0" index="0" speed="13.89" length="20.14" shape="545.97,594.28 542.84,590.98 538.65,587.38 534.21,584.10 530.30,581.78"/>
    </edge>
    <edge id=":A1_3" function="internal">
        <lane id=":A1_3_0" index="0" speed="13.89" length="21.56" shape="545.97,594.28 543.35,590.29 540.56,584.97 538.14,579.46 536.65,574.93"/>
    </edge>
    <edge id=":A1_4" function="internal">
        <lane id=":A1_4_0" index="0" speed="10.38" length="20.36" shape="545.97,594.28 543.18,589.62 542.25,584.96 543.18,580.30 545.97,575.64"/>
    </edge>
    <edge id=":A1_5" function="internal">
        <lane id=":A1_5_0" index="0" speed="6.53" length="13.76" shape="545.97,594.28 545.16,591.24 546.14,587.63 548.35,584.62 551.23,583.36"/>
    </edge>
    <edge id=":A1_6" function="internal">
        <lane id=":A1_6_0" index="0" speed="3.65" length="4.67" shape="545.97,594.28 545.84,592.84 546.22,592.03 547.10,591.84 548.47,592.28"/>
    </edge>
    <edge id=":A1_7" function="internal">
        <lane id=":A1_7_0" index="0" speed="5.54" length="9.46" shape="551.23,586.56 548.31,586.91 546.88,587.99 546.93,589.78 548.47,592.28"/>
    </edge>
    <edge id=":A1_8" function="internal">
        <lane id=":A1_8_0" index="0" speed="9.25" length="16.00" shape="551.23,586.56 547.00,587.13 543.68,588.84 541.27,591.69 539.77,595.69"/>
    </edge>
    <edge id=":A1_9" function="internal">
        <lane id=":A1_9_0" index="0" speed="13.89" length="20.14" shape="551.23,586.56 546.70,586.95 541.27,587.97 535.94,589.40 531.68,591.02"/>
    </edge>
    <edge id=":A1_10" function="internal">
        <lane id=":A1_10_0" index="0" speed="13.89" length="21.56" shape="551.23,586.56 546.48,586.12 540.58,584.98 534.76,583.44 530.30,581.78"/>
    </edge>
    <edge id=":A1_11" function="internal">
        <lane id=":A1_11_0" index="0" speed="10.38" length="20.36" shape="551.23,586.56 545.85,585.83 541.62,583.65 538.56,580.02 536.65,574.93"/>
    </edge>
    <edge id=":A1_12" function="internal">
        <lane id=":A1_12_0" index="0" speed="6.53" length="13.76" shape="551.23,586.56 548.35,585.29 546.14,582.28 545.16,578.68 545.97,575.64"/>
    </edge>
    <edge id=":A1_13" function="internal">
        <lane id=":A1_13_0" index="0" speed="3.65" length="4.67" shape="551.23,586.56 550.03,585.76 549.63,584.96 550.03,584.16 551.23,583.36"/>
    </edge>
    <edge id=":A1_14" function="internal">
        <lane id=":A1_14_0" index="0" speed="5.54" length="9.46" shape="548.47,577.63 546.93,580.14 546.88,581.93 548.31,583.00 551.23,583.36"/>
    </edge>
    <edge id=":A1_15" function="internal">
        <lane id=":A1_15_0" index="0" speed="9.25" length="16.00" shape="548.47,577.63 546.28,581.29 545.55,584.96 546.28,588.62 548.47,592.28"/>
    </edge>
    <edge id=":A1_16" function="internal">
        <lane id=":A1_16_0" index="0" speed="13.89" length="20.14" shape="548.47,577.63 545.95,581.42 543.37,586.30 541.16,591.36 539.77,595.69"/>
    </edge>
    <edge id=":A1_17" function="internal">
        <lane id=":A1_17_0" index="0" speed="13.89" length="21.56" shape="548.47,577.63 545.16,581.07 540.60,584.98 535.77,588.56 531.68,591.02"/>
    </edge>
    <edge id=":A1_18" function="internal">
        <lane id=":A1_18_0" index="0" speed="10.38" length="20.36" shape="548.47,577.63 544.55,581.39 540.21,583.33 535.46,583.46 530.30,581.78"/>
    </edge>
    <edge id=":A1_19" function="internal">
        <lane id=":A1_19_0" index="0" speed="6.53" length="13.76" shape="548.47,577.63 545.69,579.10 541.95,578.94 538.52,577.46 536.65,574.93"/>
    </edge>
    <edge id=":A1_20" function="internal">
        <lane id=":A1_20_0" index="0" speed="3.65" length="4.67" shape="548.47,577.63 547.10,578.07 546.22,577.89 545.84,577.07 545.97,575.64"/>
    </edge>
    <edge id=":A1_21" function="internal">
        <lane id=":A1_21_0" index="0" speed="5.54" length="9.46" shape="539.77,574.22 540.77,576.99 542.14,578.15 543.87,577.70 545.97,575.64"/>
    </edge>
    <edge id=":A1_22" function="internal">
        <lane id=":A1_22_0" index="0" speed="9.25" length="16.00" shape="539.77,574.22 541.27,578.22 543.68,581.07 547.00,582.79 551.23,583.36"/>
    </edge>
    <edge id=":A1_23" function="internal">
        <lane id=":A1_23_0" index="0" speed="13.89" length="20.14" shape="539.77,574.22 541.16,578.55 543.37,583.61 545.95,588.50 548.47,592.28"/>
    </edge>
    <edge id=":A1_24" function="internal">
        <lane id=":A1_24_0" index="0" speed="13.89" length="21.56" shape="539.77,574.22 540.40,578.95 540.61,584.96 540.40,590.97 539.77,595.69"/>
    </edge>
    <edge id=":A1_25" function="internal">
        <lane id=":A1_25_0" index="0" speed="10.38" length="20.36" shape="539.77,574.22 540.26,579.63 539.08,584.23 536.22,588.03 531.68,591.02"/>
    </edge>
    <edge id=":A1_26" function="internal">
        <lane id=":A1_26_0" index="0" speed="6.53" length="13.76" shape="539.77,574.22 539.18,577.31 536.74,580.14 533.44,581.89 530.30,581.78"/>
    </edge>
    <edge id=":A1_27" function="internal">
        <lane id=":A1_27_0" index="0" speed="3.65" length="4.67" shape="539.77,574.22 539.26,575.57 538.57,576.14 537.70,575.93 536.65,574.93"/>
    </edge>
    <edge id=":A1_28" function="internal">
        <lane id=":A1_28_0" index="0" speed="5.54" length="9.46" shape="531.68,578.90 534.47,579.84 536.23,579.49 536.95,577.86 536.65,574.93"/>
    </edge>
    <edge id=":A1_29" function="internal">
        <lane id=":A1_29_0" index="0" speed="9.25" length="16.00" shape="531.68,578.90 535.74,580.22 539.48,580.11 542.88,578.59 545.97,575.64"/>
    </edge>
    <edge id=":A1_30" function="internal">
        <lane id=":A1_30_0" index="0" speed="13.89" length="20.14" shape="531.68,578.90 535.94,580.51 541.27,581.94 546.70,582.96 551.23,583.36"/>
    </edge>
    <edge id=":A1_31" function="internal">
        <lane id=":A1_31_0" index="0" speed="13.89" length="21.56" shape="531.68,578.90 535.77,581.35 540.60,584.94 545.16,588.85 548.47,592.28"/>
    </edge>
    <edge id=":A1_32" function="internal">
        <lane id=":A1_32_0" index="0" speed="10.38" length="20.36" shape="531.68,578.90 536.22,581.89 539.08,585.68 540.26,590.28 539.77,595.69"/>
    </edge>
    <edge id=":A1_33" function="internal">
        <lane id=":A1_33_0" index="0" speed="6.53" length="13.76" shape="531.68,578.90 533.73,581.28 534.41,584.96 533.73,588.63 531.68,591.02"/>
    </edge>
    <edge id=":A1_34" function="internal">
        <lane id=":A1_34_0" index="0" speed="3.65" length="4.67" shape="531.68,578.90 532.42,580.14 532.43,581.03 531.72,581.58 530.30,581.78"/>
    </edge>
    <edge id=":A1_35" function="internal">
        <lane id=":A1_35_0" index="0" speed="5.54" length="9.46" shape="530.30,588.13 532.77,586.55 533.60,584.96 532.77,583.37 530.30,581.78"/>
    </edge>
    <edge id=":A1_36" function="internal">
        <lane id=":A1_36_0" index="0" speed="9.25" length="16.00" shape="530.30,588.13 533.86,585.78 536.11,582.80 537.04,579.18 536.65,574.93"/>
    </edge>
    <edge id=":A1_37" function="internal">
        <lane id=":A1_37_0" index="0" speed="13.89" length="20.14" shape="530.30,588.13 534.21,585.82 538.65,582.54 542.84,578.93 545.97,575.64"/>
    </edge>
    <edge id=":A1_38" function="internal">
        <lane id=":A1_38_0" index="0" speed="13.89" length="21.56" shape="530.30,588.13 534.76,586.47 540.58,584.93 546.48,583.80 551.23,583.36"/>
    </edge>
    <edge id=":A1_39" function="internal">
        <lane id=":A1_39_0" index="0" speed="10.38" length="20.36" shape="530.30,588.13 535.46,586.45 540.21,586.58 544.55,588.53 548.47,592.28"/>
    </edge>
    <edge id=":A1_40" function="internal">
        <lane id=":A1_40_0" index="0" speed="6.53" length="13.76" shape="530.30,588.13 533.44,588.02 536.74,589.78 539.18,592.60 539.77,595.69"/>
    </edge>
    <edge id=":A1_41" function="internal">
        <lane id=":A1_41_0" index="0" speed="3.65" length="4.67" shape="530.30,588.13 531.72,588.33 532.43,588.88 532.42,589.78 531.68,591.02"/>
    </edge>
    <edge id=":A1_42" function="internal">
        <lane id=":A1_42_0" index="0" speed="5.54" length="9.46" shape="536.65,594.98 536.95,592.05 536.23,590.42 534.47,590.07 531.68,591.02"/>
    </edge>
    <edge id=":A1_43" function="internal">
        <lane id=":A1_43_0" index="0" speed="9.25" length="16.00" shape="536.65,594.98 537.04,590.73 536.11,587.11 533.86,584.13 530.30,581.78"/>
    </edge>
    <edge id=":A1_44" function="internal">
        <lane id=":A1_44_0" index="0" speed="13.89" length="20.14" shape="536.65,594.98 537.28,590.48 537.49,584.96 537.28,579.44 536.65,574.93"/>
    </edge>
    <edge id=":A1_45" function="internal">
        <lane id=":A1_45_0" index="0" speed="13.89" length="21.56" shape="536.65,594.98 538.14,590.45 540.56,584.95 543.35,579.62 545.97,575.64"/>
    </edge>
    <edge id=":A1_46" function="internal">
        <lane id=":A1_46_0" index="0" speed="10.38" length="20.36" shape="536.65,594.98 538.56,589.89 541.62,586.26 545.85,584.08 551.23,583.36"/>
    </edge>
    <edge id=":A1_47" function="internal">
        <lane id=":A1_47_0" index="0" speed="6.53" length="13.76" shape="536.65,594.98 538.52,592.45 541.95,590.97 545.69,590.82 548.47,592.28"/>
    </edge>
    <edge id=":A1_48" function="internal">
        <lane id=":A1_48_0" index="0" speed="3.65" length="4.67" shape="536.65,594.98 537.70,593.99 538.57,593.77 539.26,594.34 539.77,595.69"/>
    </edge>
    <edge id=":B1_0" function="internal">
        <lane id=":B1_0_0" index="0" speed="8.94" length="11.80" shape="646.59,586.56 644.18,587.01 641.96,588.38 639.93,590.66 638.08,593.84"/>
    </edge>
    <edge id=":B1_1" function="internal">
        <lane id=":B1_1_0" index="0" speed="13.89" length="15.10" shape="646.59,586.56 631.49,586.56"/>
    </edge>
    <edge id=":B1_2" function="internal">
        <lane id=":B1_2_0" index="0" speed="10.14" length="3.58" shape="646.59,586.56 643.25,585.99 643.08,585.90"/>
    </edge>
    <edge id=":B1_3" function="internal">
        <lane id=":B1_3_0" index="0" speed="3.65" length="1.44" shape="646.59,586.56 645.39,585.76"/>
    </edge>
    <edge id=":B1_16" function="internal">
        <lane id=":B1_16_0" index="0" speed="10.14" length="11.81" shape="643.08,585.90 640.23,584.28 637.55,581.44 635.19,577.46"/>
    </edge>
    <edge id=":B1_17" function="internal">
        <lane id=":B1_17_0" index="0" speed="3.65" length="3.23" shape="645.39,585.76 644.99,584.96 645.39,584.16 646.59,583.36"/>
    </edge>
    <edge id=":B1_4" function="internal">
        <lane id=":B1_4_0" index="0" speed="8.94" length="11.80" shape="638.08,576.07 639.93,579.26 641.96,581.54 644.18,582.90 646.59,583.36"/>
    </edge>
    <edge id=":B1_5" function="internal">
        <lane id=":B1_5_0" index="0" speed="12.79" length="18.40" shape="638.08,576.07 639.68,580.51 640.22,584.96 639.68,589.40 638.08,593.84"/>
    </edge>
    <edge id=":B1_6" function="internal">
        <lane id=":B1_6_0" index="0" speed="7.44" length="16.31" shape="638.08,576.07 639.56,580.66 638.96,583.94 636.27,585.90 631.49,586.56"/>
    </edge>
    <edge id=":B1_7" function="internal">
        <lane id=":B1_7_0" index="0" speed="3.65" length="4.67" shape="638.08,576.07 637.88,577.50 637.33,578.21 636.44,578.19 635.19,577.46"/>
    </edge>
    <edge id=":B1_8" function="internal">
        <lane id=":B1_8_0" index="0" speed="5.75" length="9.17" shape="631.49,583.36 634.18,582.99 635.69,581.88 636.03,580.04 635.19,577.46"/>
    </edge>
    <edge id=":B1_9" function="internal">
        <lane id=":B1_9_0" index="0" speed="13.89" length="15.10" shape="631.49,583.36 646.59,583.36"/>
    </edge>
    <edge id=":B1_10" function="internal">
        <lane id=":B1_10_0" index="0" speed="7.44" length="4.82" shape="631.49,583.36 636.27,584.01"/>
    </edge>
    <edge id=":B1_11" function="internal">
        <lane id=":B1_11_0" index="0" speed="3.65" length="1.44" shape="631.49,583.36 632.69,584.16"/>
    </edge>
    <edge id=":B1_18" function="internal">
        <lane id=":B1_18_0" index="0" speed="7.44" length="11.49" shape="636.27,584.01 638.96,585.98 639.56,589.26 638.08,593.84"/>
    </edge>
    <edge id=":B1_19" function="internal">
        <lane id=":B1_19_0" index="0" speed="3.65" length="3.23" shape="632.69,584.16 633.09,584.96 632.69,585.76 631.49,586.56"/>
    </edge>
    <edge id=":B1_12" function="internal">
        <lane id=":B1_12_0" index="0" speed="5.75" length="9.17" shape="635.19,592.45 636.03,589.87 635.69,588.03 634.18,586.93 631.49,586.56"/>
    </edge>
    <edge id=":B1_13" function="internal">
        <lane id=":B1_13_0" index="0" speed="11.78" length="15.52" shape="635.19,592.45 636.55,588.71 637.00,584.96 636.55,581.21 635.19,577.46"/>
    </edge>
    <edge id=":B1_14" function="internal">
        <lane id=":B1_14_0" index="0" speed="10.14" length="15.39" shape="635.19,592.45 637.55,588.47 640.23,585.63 643.25,583.93 646.59,583.36"/>
    </edge>
    <edge id=":B1_15" function="internal">
        <lane id=":B1_15_0" index="0" speed="3.65" length="4.67" shape="635.19,592.45 636.44,591.72 637.33,591.71 637.88,592.41 638.08,593.84"/>
    </edge>
    <edge id=":B2_0" function="internal">
        <lane id=":B2_0_0" index="0" speed="8.94" length="11.80" shape="605.43,668.84 603.57,667.24 601.12,666.35 598.07,666.18 594.42,666.72"/>
    </edge>
    <edge id=":B2_1" function="internal">
        <lane id=":B2_1_0" index="0" speed="13.89" length="15.10" shape="605.43,668.84 596.01,657.03"/>
    </edge>
    <edge id=":B2_2" function="internal">
        <lane id=":B2_2_0" index="0" speed="10.14" length="3.58" shape="605.43,668.84 603.79,665.87 603.76,665.68"/>
    </edge>
    <edge id=":B2_3" function="internal">
        <lane id=":B2_3_0" index="0" speed="3.65" length="1.44" shape="605.43,668.84 605.30,667.40"/>
    </edge>
    <edge id=":B2_16" function="internal">
        <lane id=":B2_16_0" index="0" speed="10.14" length="11.81" shape="603.76,665.68 603.24,662.45 603.79,658.58 605.43,654.25"/>
    </edge>
    <edge id=":B2_17" function="internal">
        <lane id=":B2_17_0" index="0" speed="3.65" length="3.23" shape="605.30,667.40 605.68,666.59 606.56,666.40 607.93,666.84"/>
    </edge>
    <edge id=":B2_4" function="internal">
        <lane id=":B2_4_0" index="0" speed="8.94" length="11.80" shape="608.32,655.64 606.98,659.07 606.47,662.09 606.78,664.67 607.93,666.84"/>
    </edge>
    <edge id=":B2_5" function="internal">
        <lane id=":B2_5_0" index="0" speed="12.79" length="18.40" shape="608.32,655.64 605.84,659.67 602.70,662.86 598.90,665.21 594.42,666.72"/>
    </edge>
    <edge id=":B2_6" function="internal">
        <lane id=":B2_6_0" index="0" speed="7.44" length="16.31" shape="608.32,655.64 605.65,659.66 602.72,661.23 599.50,660.35 596.01,657.03"/>
    </edge>
    <edge id=":B2_7" function="internal">
        <lane id=":B2_7_0" index="0" speed="3.65" length="4.67" shape="608.32,655.64 607.08,656.38 606.18,656.39 605.63,655.68 605.43,654.25"/>
    </edge>
    <edge id=":B2_8" function="internal">
        <lane id=":B2_8_0" index="0" speed="5.75" length="9.17" shape="598.51,655.03 600.48,656.90 602.28,657.40 603.94,656.51 605.43,654.25"/>
    </edge>
    <edge id=":B2_9" function="internal">
        <lane id=":B2_9_0" index="0" speed="13.89" length="15.10" shape="598.51,655.03 607.93,666.84"/>
    </edge>
    <edge id=":B2_10" function="internal">
        <lane id=":B2_10_0" index="0" speed="7.44" length="4.82" shape="598.51,655.03 600.98,659.18"/>
    </edge>
    <edge id=":B2_11" function="internal">
        <lane id=":B2_11_0" index="0" speed="3.65" length="1.44" shape="598.51,655.03 598.63,656.47"/>
    </edge>
    <edge id=":B2_18" function="internal">
        <lane id=":B2_18_0" index="0" speed="7.44" length="11.49" shape="600.98,659.18 601.12,662.51 598.93,665.02 594.42,666.72"/>
    </edge>
    <edge id=":B2_19" function="internal">
        <lane id=":B2_19_0" index="0" speed="3.65" length="3.23" shape="598.63,656.47 598.26,657.28 597.38,657.47 596.01,657.03"/>
    </edge>
    <edge id=":B2_12" function="internal">
        <lane id=":B2_12_0" index="0" speed="5.75" length="9.17" shape="593.71,663.60 596.25,662.65 597.48,661.23 597.40,659.36 596.01,657.03"/>
    </edge>
    <edge id=":B2_13" function="internal">
        <lane id=":B2_13_0" index="0" speed="11.78" length="15.52" shape="593.71,663.60 597.48,662.32 600.70,660.34 603.35,657.65 605.43,654.25"/>
    </edge>
    <edge id=":B2_14" function="internal">
        <lane id=":B2_14_0" index="0" speed="10.14" length="15.39" shape="593.71,663.60 598.29,662.96 602.19,663.29 605.40,664.58 607.93,666.84"/>
    </edge>
    <edge id=":B2_15" function="internal">
        <lane id=":B2_15_0" index="0" speed="3.65" length="4.67" shape="593.71,663.60 595.06,664.12 595.63,664.81 595.41,665.68 594.42,666.72"/>
    </edge>
    <edge id=":B3_0" function="internal">
        <lane id=":B3_0_0" index="0" speed="8.94" length="11.80" shape="527.55,681.99 524.03,683.08 521.36,684.56 519.53,686.42 518.55,688.67"/>
    </edge>
    <edge id=":B3_1" function="internal">
        <lane id=":B3_1_0" index="0" speed="12.79" length="18.40" shape="527.55,681.99 522.86,682.56 518.41,682.09 514.20,680.58 510.22,678.03"/>
    </edge>
    <edge id=":B3_2" function="internal">
        <lane id=":B3_2_0" index="0" speed="7.44" length="16.31" shape="527.55,681.99 522.75,682.41 519.69,681.09 518.37,678.03 518.79,673.23"/>
    </edge>
    <edge id=":B3_3" function="internal">
        <lane id=":B3_3_0" index="0" speed="3.65" length="4.67" shape="527.55,681.99 526.20,681.47 525.63,680.78 525.85,679.91 526.84,678.87"/>
    </edge>
    <edge id=":B3_4" function="internal">
        <lane id=":B3_4_0" index="0" speed="5.75" length="9.17" shape="521.91,673.94 521.67,676.64 522.42,678.36 524.14,679.10 526.84,678.87"/>
    </edge>
    <edge id=":B3_5" function="internal">
        <lane id=":B3_5_0" index="0" speed="13.89" length="15.10" shape="521.91,673.94 518.55,688.67"/>
    </edge>
    <edge id=":B3_6" function="internal">
        <lane id=":B3_6_0" index="0" speed="7.44" length="4.82" shape="521.91,673.94 520.21,678.45"/>
    </edge>
    <edge id=":B3_7" function="internal">
        <lane id=":B3_7_0" index="0" speed="3.65" length="1.44" shape="521.91,673.94 520.87,674.93"/>
    </edge>
    <edge id=":B3_16" function="internal">
        <lane id=":B3_16_0" index="0" speed="7.44" length="11.49" shape="520.21,678.45 517.70,680.64 514.37,680.50 510.22,678.03"/>
    </edge>
    <edge id=":B3_17" function="internal">
        <lane id=":B3_17_0" index="0" speed="3.65" length="3.23" shape="520.87,674.93 520.00,675.14 519.31,674.58 518.79,673.23"/>
    </edge>
    <edge id=":B3_8" function="internal">
        <lane id=":B3_8_0" index="0" speed="5.75" length="9.17" shape="512.22,675.53 514.55,676.92 516.42,676.99 517.84,675.77 518.79,673.23"/>
    </edge>
    <edge id=":B3_9" function="internal">
        <lane id=":B3_9_0" index="0" speed="11.78" length="15.52" shape="512.22,675.53 515.57,677.68 519.13,678.96 522.88,679.35 526.84,678.87"/>
    </edge>
    <edge id=":B3_10" function="internal">
        <lane id=":B3_10_0" index="0" speed="10.14" length="15.39" shape="512.22,675.53 515.57,678.71 517.75,681.96 518.74,685.28 518.55,688.67"/>
    </edge>
    <edge id=":B3_11" function="internal">
        <lane id=":B3_11_0" index="0" speed="3.65" length="4.67" shape="512.22,675.53 512.66,676.90 512.47,677.78 511.66,678.15 510.22,678.03"/>
    </edge>
    <edge id=":B3_12" function="internal">
        <lane id=":B3_12_0" index="0" speed="8.94" length="11.80" shape="515.43,687.95 515.52,685.50 514.69,683.03 512.92,680.54 510.22,678.03"/>
    </edge>
    <edge id=":B3_13" function="internal">
        <lane id=":B3_13_0" index="0" speed="13.89" length="15.10" shape="515.43,687.95 518.79,673.23"/>
    </edge>
    <edge id=":B3_14" function="internal">
        <lane id=":B3_14_0" index="0" speed="10.14" length="3.58" shape="515.43,687.95 516.73,684.82 516.86,684.68"/>
    </edge>
    <edge id=":B3_15" function="internal">
        <lane id=":B3_15_0" index="0" speed="3.65" length="1.44" shape="515.43,687.95 516.48,686.96"/>
    </edge>
    <edge id=":B3_18" function="internal">
        <lane id=":B3_18_0" index="0" speed="10.14" length="11.81" shape="516.86,684.68 519.06,682.26 522.43,680.28 526.84,678.87"/>
    </edge>
    <edge id=":B3_19" function="internal">
        <lane id=":B3_19_0" index="0" speed="3.65" length="3.23" shape="516.48,686.96 517.35,686.75 518.04,687.32 518.55,688.67"/>
    </edge>
    <edge id=":B4_0" function="internal">
        <lane id=":B4_0_0" index="0" speed="8.94" length="11.80" shape="456.60,635.27 453.55,633.19 450.73,632.03 448.13,631.76 445.76,632.39"/>
    </edge>
    <edge id=":B4_1" function="internal">
        <lane id=":B4_1_0" index="0" speed="12.79" length="18.40" shape="456.60,635.27 453.22,631.96 450.81,628.19 449.37,623.95 448.88,619.25"/>
    </edge>
    <edge id=":B4_2" function="internal">
        <lane id=":B4_2_0" index="0" speed="7.44" length="16.31" shape="456.60,635.27 453.27,631.77 452.39,628.56 453.96,625.62 457.98,622.96"/>
    </edge>
    <edge id=":B4_3" function="internal">
        <lane id=":B4_3_0" index="0" speed="3.65" length="4.67" shape="456.60,635.27 456.16,633.89 456.34,633.02 457.15,632.64 458.59,632.76"/>
    </edge>
    <edge id=":B4_4" function="internal">
        <lane id=":B4_4_0" index="0" speed="5.75" length="9.17" shape="459.37,625.84 457.11,627.34 456.23,628.99 456.72,630.80 458.59,632.76"/>
    </edge>
    <edge id=":B4_5" function="internal">
        <lane id=":B4_5_0" index="0" speed="13.89" length="15.10" shape="459.37,625.84 445.76,632.39"/>
    </edge>
    <edge id=":B4_6" function="internal">
        <lane id=":B4_6_0" index="0" speed="7.44" length="4.82" shape="459.37,625.84 454.78,627.32"/>
    </edge>
    <edge id=":B4_7" function="internal">
        <lane id=":B4_7_0" index="0" speed="3.65" length="1.44" shape="459.37,625.84 457.94,625.64"/>
    </edge>
    <edge id=":B4_16" function="internal">
        <lane id=":B4_16_0" index="0" speed="7.44" length="11.49" shape="454.78,627.32 451.51,626.72 449.54,624.03 448.88,619.25"/>
    </edge>
    <edge id=":B4_17" function="internal">
        <lane id=":B4_17_0" index="0" speed="3.65" length="3.23" shape="457.94,625.64 457.24,625.09 457.25,624.20 457.98,622.96"/>
    </edge>
    <edge id=":B4_8" function="internal">
        <lane id=":B4_8_0" index="0" speed="5.75" length="9.17" shape="452.08,619.25 452.45,621.94 453.56,623.45 455.40,623.79 457.98,622.96"/>
    </edge>
    <edge id=":B4_9" function="internal">
        <lane id=":B4_9_0" index="0" speed="11.78" length="15.52" shape="452.08,619.25 452.49,623.22 453.71,626.79 455.74,629.97 458.59,632.76"/>
    </edge>
    <edge id=":B4_10" function="internal">
        <lane id=":B4_10_0" index="0" speed="10.14" length="15.39" shape="452.08,619.25 451.69,623.86 450.50,627.59 448.53,630.43 445.76,632.39"/>
    </edge>
    <edge id=":B4_11" function="internal">
        <lane id=":B4_11_0" index="0" speed="3.65" length="4.67" shape="452.08,619.25 451.28,620.45 450.48,620.85 449.68,620.45 448.88,619.25"/>
    </edge>
    <edge id=":B4_12" function="internal">
        <lane id=":B4_12_0" index="0" speed="8.94" length="11.80" shape="444.37,629.51 446.35,628.06 447.76,625.86 448.60,622.93 448.88,619.25"/>
    </edge>
    <edge id=":B4_13" function="internal">
        <lane id=":B4_13_0" index="0" speed="13.89" length="15.10" shape="444.37,629.51 457.98,622.96"/>
    </edge>
    <edge id=":B4_14" function="internal">
        <lane id=":B4_14_0" index="0" speed="10.14" length="3.58" shape="444.37,629.51 447.63,628.57 447.82,628.59"/>
    </edge>
    <edge id=":B4_15" function="internal">
        <lane id=":B4_15_0" index="0" speed="3.65" length="1.44" shape="444.37,629.51 445.80,629.71"/>
    </edge>
    <edge id=":B4_18" function="internal">
        <lane id=":B4_18_0" index="0" speed="10.14" length="11.81" shape="447.82,628.59 451.09,628.80 454.74,630.20 458.59,632.76"/>
    </edge>
    <edge id=":B4_19" function="internal">
        <lane id=":B4_19_0" index="0" speed="3.65" length="3.23" shape="445.80,629.71 446.51,630.26 446.50,631.15 445.76,632.39"/>
    </edge>
    <edge id=":B5_0" function="internal">
        <lane id=":B5_0_0" index="0" speed="8.94" length="11.80" shape="448.88,550.66 448.60,546.99 447.76,544.05 446.35,541.86 444.37,540.40"/>
    </edge>
    <edge id=":B5_1" function="internal">
        <lane id=":B5_1_0" index="0" speed="12.79" length="18.40" shape="448.88,550.66 449.37,545.96 450.81,541.73 453.22,537.96 456.60,534.65"/>
    </edge>
    <edge id=":B5_2" function="internal">
        <lane id=":B5_2_0" index="0" speed="7.44" length="16.31" shape="448.88,550.66 449.54,545.88 451.51,543.19 454.78,542.59 459.37,544.07"/>
    </edge>
    <edge id=":B5_3" function="internal">
        <lane id=":B5_3_0" index="0" speed="3.65" length="4.67" shape="448.88,550.66 449.68,549.46 450.48,549.06 451.28,549.46 452.08,550.66"/>
    </edge>
    <edge id=":B5_4" function="internal">
        <lane id=":B5_4_0" index="0" speed="5.75" length="9.17" shape="457.98,546.96 455.40,546.12 453.56,546.46 452.45,547.97 452.08,550.66"/>
    </edge>
    <edge id=":B5_5" function="internal">
        <lane id=":B5_5_0" index="0" speed="13.89" length="15.10" shape="457.98,546.96 444.37,540.40"/>
    </edge>
    <edge id=":B5_6" function="internal">
        <lane id=":B5_6_0" index="0" speed="7.44" length="4.82" shape="457.98,546.96 453.96,544.29"/>
    </edge>
    <edge id=":B5_7" function="internal">
        <lane id=":B5_7_0" index="0" speed="3.65" length="1.44" shape="457.98,546.96 457.25,545.71"/>
    </edge>
    <edge id=":B5_16" function="internal">
        <lane id=":B5_16_0" index="0" speed="7.44" length="11.49" shape="453.96,544.29 452.39,541.35 453.27,538.14 456.60,534.65"/>
    </edge>
    <edge id=":B5_17" function="internal">
        <lane id=":B5_17_0" index="0" speed="3.65" length="3.23" shape="457.25,545.71 457.24,544.82 457.94,544.27 459.37,544.07"/>
    </edge>
    <edge id=":B5_8" function="internal">
        <lane id=":B5_8_0" index="0" speed="5.75" length="9.17" shape="458.59,537.15 456.72,539.11 456.23,540.92 457.11,542.57 459.37,544.07"/>
    </edge>
    <edge id=":B5_9" function="internal">
        <lane id=":B5_9_0" index="0" speed="11.78" length="15.52" shape="458.59,537.15 455.74,539.94 453.71,543.12 452.49,546.70 452.08,550.66"/>
    </edge>
    <edge id=":B5_10" function="internal">
        <lane id=":B5_10_0" index="0" speed="10.14" length="15.39" shape="458.59,537.15 454.74,539.71 451.09,541.11 447.63,541.34 444.37,540.40"/>
    </edge>
    <edge id=":B5_11" function="internal">
        <lane id=":B5_11_0" index="0" speed="3.65" length="4.67" shape="458.59,537.15 457.15,537.27 456.34,536.90 456.16,536.02 456.60,534.65"/>
    </edge>
    <edge id=":B5_12" function="internal">
        <lane id=":B5_12_0" index="0" speed="8.94" length="11.80" shape="445.76,537.52 448.13,538.15 450.73,537.89 453.55,536.72 456.60,534.65"/>
    </edge>
    <edge id=":B5_13" function="internal">
        <lane id=":B5_13_0" index="0" speed="13.89" length="15.10" shape="445.76,537.52 459.37,544.07"/>
    </edge>
    <edge id=":B5_14" function="internal">
        <lane id=":B5_14_0" index="0" speed="10.14" length="3.58" shape="445.76,537.52 448.53,539.48 448.64,539.64"/>
    </edge>
    <edge id=":B5_15" function="internal">
        <lane id=":B5_15_0" index="0" speed="3.65" length="1.44" shape="445.76,537.52 446.50,538.76"/>
    </edge>
    <edge id=":B5_18" function="internal">
        <lane id=":B5_18_0" index="0" speed="10.14" length="11.81" shape="448.64,539.64 450.50,542.33 451.69,546.05 452.08,550.66"/>
    </edge>
    <edge id=":B5_19" function="internal">
        <lane id=":B5_19_0" index="0" speed="3.65" length="3.23" shape="446.50,538.76 446.51,539.65 445.80,540.20 444.37,540.40"/>
    </edge>
    <edge id=":B6_0" function="internal">
        <lane id=":B6_0_0" index="0" speed="5.75" length="9.17" shape="518.79,496.68 517.84,494.15 516.42,492.92 514.55,493.00 512.22,494.38"/>
    </edge>
    <edge id=":B6_1" function="internal">
        <lane id=":B6_1_0" index="0" speed="13.89" length="15.10" shape="518.79,496.68 515.43,481.96"/>
    </edge>
    <edge id=":B6_2" function="internal">
        <lane id=":B6_2_0" index="0" speed="7.44" length="4.82" shape="518.79,496.68 518.37,491.88"/>
    </edge>
    <edge id=":B6_3" function="internal">
        <lane id=":B6_3_0" index="0" speed="3.65" length="1.44" shape="518.79,496.68 519.31,495.34"/>
    </edge>
    <edge id=":B6_16" function="internal">