<?xml version="1.0" encoding="UTF-8"?>

<!-- generated on 2024-11-08 16:01:38 by Eclipse SUMO netgenerate Version 1.21.0
<netgenerateConfiguration xmlns:xsi="http://www.w3.org/2001/XMLSchema-instance" xsi:noNamespaceSchemaLocation="http://sumo.dlr.de/xsd/netgenerateConfiguration.xsd">

    <spider_network>
        <spider value="true"/>
        <spider.omit-center value="true"/>
        <spider.attach-length value="100.0"/>
    </spider_network>

    <output>
        <output-file value="generated-nets/spider-nets/spider1.net.xml"/>
    </output>

</netgenerateConfiguration>
-->

<net version="1.20" junctionCornerDetail="5" limitTurnSpeed="5.50" xmlns:xsi="http://www.w3.org/2001/XMLSchema-instance" xsi:noNamespaceSchemaLocation="http://sumo.dlr.de/xsd/net_file.xsd">

    <location netOffset="540.58,584.96" convBoundary="0.00,0.00,1140.58,1169.91" origBoundary="-540.58,-584.96,600.00,584.96" projParameter="!"/>

    <edge id=":B1_0" function="internal">
        <lane id=":B1_0_0" index="0" speed="6.69" length="6.31" shape="645.11,586.56 643.47,586.75 642.08,587.35 640.95,588.34 640.06,589.73"/>
    </edge>
    <edge id=":B1_1" function="internal">
        <lane id=":B1_1_0" index="0" speed="8.23" length="9.92" shape="645.11,586.56 642.54,586.25 640.36,585.31 638.57,583.75 637.18,581.57"/>
    </edge>
    <edge id=":B1_2" function="internal">
        <lane id=":B1_2_0" index="0" speed="3.65" length="4.67" shape="645.11,586.56 643.91,585.76 643.51,584.96 643.91,584.16 645.11,583.36"/>
    </edge>
    <edge id=":B1_3" function="internal">
        <lane id=":B1_3_0" index="0" speed="6.69" length="6.31" shape="640.06,580.19 640.95,581.57 642.08,582.56 643.47,583.16 645.11,583.36"/>
    </edge>
    <edge id=":B1_4" function="internal">
        <lane id=":B1_4_0" index="0" speed="9.48" length="9.88" shape="640.06,580.19 640.92,582.57 641.21,584.96 640.92,587.34 640.06,589.73"/>
    </edge>
    <edge id=":B1_5" function="internal">
        <lane id=":B1_5_0" index="0" speed="3.65" length="1.44" shape="640.06,580.19 639.86,581.61"/>
    </edge>
    <edge id=":B1_9" function="internal">
        <lane id=":B1_9_0" index="0" speed="3.65" length="3.23" shape="639.86,581.61 639.31,582.32 638.42,582.31 637.18,581.57"/>
    </edge>
    <edge id=":B1_6" function="internal">
        <lane id=":B1_6_0" index="0" speed="8.06" length="7.00" shape="637.18,588.34 637.79,586.65 637.99,584.96 637.79,583.27 637.18,581.57"/>
    </edge>
    <edge id=":B1_7" function="internal">
        <lane id=":B1_7_0" index="0" speed="8.23" length="2.59" shape="637.18,588.34 638.57,586.16"/>
    </edge>
    <edge id=":B1_8" function="internal">
        <lane id=":B1_8_0" index="0" speed="3.65" length="1.33" shape="637.18,588.34 638.33,587.66"/>
    </edge>
    <edge id=":B1_10" function="internal">
        <lane id=":B1_10_0" index="0" speed="8.23" length="7.33" shape="638.57,586.16 640.36,584.60 642.54,583.67 645.11,583.36"/>
    </edge>
    <edge id=":B1_11" function="internal">
        <lane id=":B1_11_0" index="0" speed="3.65" length="3.34" shape="638.33,587.66 638.42,587.60 639.31,587.59 639.86,588.30 640.06,589.73"/>
    </edge>
    <edge id=":B2_0" function="internal">
        <lane id=":B2_0_0" index="0" speed="6.69" length="6.31" shape="604.50,667.67 603.33,666.52 602.00,665.81 600.51,665.54 598.88,665.71"/>
    </edge>
    <edge id=":B2_1" function="internal">
        <lane id=":B2_1_0" index="0" speed="8.23" length="9.92" shape="604.50,667.67 603.14,665.47 602.51,663.19 602.62,660.82 603.45,658.37"/>
    </edge>
    <edge id=":B2_2" function="internal">
        <lane id=":B2_2_0" index="0" speed="3.65" length="4.67" shape="604.50,667.67 604.38,666.24 604.75,665.43 605.63,665.24 607.00,665.68"/>
    </edge>
    <edge id=":B2_3" function="internal">
        <lane id=":B2_3_0" index="0" speed="6.69" length="6.31" shape="606.33,659.76 605.80,661.32 605.74,662.82 606.14,664.28 607.00,665.68"/>
    </edge>
    <edge id=":B2_4" function="internal">
        <lane id=":B2_4_0" index="0" speed="9.48" length="9.88" shape="606.33,659.76 605.01,661.92 603.32,663.63 601.28,664.89 598.88,665.71"/>
    </edge>
    <edge id=":B2_5" function="internal">
        <lane id=":B2_5_0" index="0" speed="3.65" length="1.44" shape="606.33,659.76 605.09,660.49"/>
    </edge>
    <edge id=":B2_9" function="internal">
        <lane id=":B2_9_0" index="0" speed="3.65" length="3.23" shape="605.09,660.49 604.20,660.51 603.65,659.80 603.45,658.37"/>
    </edge>
    <edge id=":B2_6" function="internal">
        <lane id=":B2_6_0" index="0" speed="8.06" length="7.00" shape="598.16,662.59 599.87,662.01 601.32,661.11 602.51,659.90 603.45,658.37"/>
    </edge>
    <edge id=":B2_7" function="internal">
        <lane id=":B2_7_0" index="0" speed="8.23" length="2.59" shape="598.16,662.59 600.74,662.32"/>
    </edge>
    <edge id=":B2_8" function="internal">
        <lane id=":B2_8_0" index="0" speed="3.65" length="1.33" shape="598.16,662.59 599.41,663.06"/>
    </edge>
    <edge id=":B2_10" function="internal">
        <lane id=":B2_10_0" index="0" speed="8.23" length="7.33" shape="600.74,662.32 603.07,662.74 605.16,663.86 607.00,665.68"/>
    </edge>
    <edge id=":B2_11" function="internal">
        <lane id=":B2_11_0" index="0" speed="3.65" length="3.34" shape="599.41,663.06 599.51,663.10 600.08,663.79 599.87,664.66 598.88,665.71"/>
    </edge>
    <edge id=":B3_0" function="internal">
        <lane id=":B3_0_0" index="0" speed="6.69" length="6.31" shape="523.10,683.00 521.55,683.56 520.33,684.45 519.44,685.67 518.88,687.22"/>
    </edge>
    <edge id=":B3_1" function="internal">
        <lane id=":B3_1_0" index="0" speed="9.48" length="9.88" shape="523.10,683.00 520.58,683.31 518.19,683.06 515.93,682.25 513.79,680.88"/>
    </edge>
    <edge id=":B3_2" function="internal">
        <lane id=":B3_2_0" index="0" speed="3.65" length="1.44" shape="523.10,683.00 521.75,682.49"/>
    </edge>
    <edge id=":B3_9" function="internal">
        <lane id=":B3_9_0" index="0" speed="3.65" length="3.23" shape="521.75,682.49 521.18,681.80 521.39,680.93 522.38,679.88"/>
    </edge>
    <edge id=":B3_3" function="internal">
        <lane id=":B3_3_0" index="0" speed="8.06" length="7.00" shape="515.79,678.38 517.30,679.35 518.91,679.92 520.60,680.10 522.38,679.88"/>
    </edge>
    <edge id=":B3_4" function="internal">
        <lane id=":B3_4_0" index="0" speed="8.23" length="2.59" shape="515.79,678.38 517.60,680.22"/>
    </edge>
    <edge id=":B3_5" function="internal">
        <lane id=":B3_5_0" index="0" speed="3.65" length="1.33" shape="515.79,678.38 516.20,679.65"/>
    </edge>
    <edge id=":B3_10" function="internal">
        <lane id=":B3_10_0" index="0" speed="8.23" length="7.33" shape="517.60,680.22 518.72,682.31 519.15,684.64 518.88,687.22"/>
    </edge>
    <edge id=":B3_11" function="internal">
        <lane id=":B3_11_0" index="0" speed="3.65" length="3.34" shape="516.20,679.65 516.23,679.75 516.04,680.63 515.23,681.00 513.79,680.88"/>
    </edge>
    <edge id=":B3_6" function="internal">
        <lane id=":B3_6_0" index="0" speed="6.69" length="6.31" shape="515.76,686.50 515.93,684.87 515.66,683.38 514.95,682.05 513.79,680.88"/>
    </edge>
    <edge id=":B3_7" function="internal">
        <lane id=":B3_7_0" index="0" speed="8.23" length="9.92" shape="515.76,686.50 516.64,684.07 518.03,682.15 519.95,680.76 522.38,679.88"/>
    </edge>
    <edge id=":B3_8" function="internal">
        <lane id=":B3_8_0" index="0" speed="3.65" length="4.67" shape="515.76,686.50 516.81,685.51 517.68,685.30 518.37,685.87 518.88,687.22"/>
    </edge>
    <edge id=":B4_0" function="internal">
        <lane id=":B4_0_0" index="0" speed="6.69" length="6.31" shape="453.02,632.42 451.62,631.55 450.17,631.15 448.66,631.22 447.10,631.75"/>
    </edge>
    <edge id=":B4_1" function="internal">
        <lane id=":B4_1_0" index="0" speed="9.48" length="9.88" shape="453.02,632.42 451.21,630.64 449.92,628.62 449.14,626.34 448.88,623.82"/>
    </edge>
    <edge id=":B4_2" function="internal">
        <lane id=":B4_2_0" index="0" speed="3.65" length="1.44" shape="453.02,632.42 452.58,631.04"/>
    </edge>
    <edge id=":B4_9" function="internal">
        <lane id=":B4_9_0" index="0" speed="3.65" length="3.23" shape="452.58,631.04 452.77,630.17 453.58,629.79 455.02,629.91"/>
    </edge>
    <edge id=":B4_3" function="internal">
        <lane id=":B4_3_0" index="0" speed="8.06" length="7.00" shape="452.08,623.82 452.27,625.61 452.82,627.22 453.74,628.66 455.02,629.91"/>
    </edge>
    <edge id=":B4_4" function="internal">
        <lane id=":B4_4_0" index="0" speed="8.23" length="2.59" shape="452.08,623.82 451.77,626.39"/>
    </edge>
    <edge id=":B4_5" function="internal">
        <lane id=":B4_5_0" index="0" speed="3.65" length="1.33" shape="452.08,623.82 451.34,624.93"/>
    </edge>
    <edge id=":B4_10" function="internal">
        <lane id=":B4_10_0" index="0" speed="8.23" length="7.33" shape="451.77,626.39 450.84,628.57 449.28,630.35 447.10,631.75"/>
    </edge>
    <edge id=":B4_11" function="internal">
        <lane id=":B4_11_0" index="0" speed="3.65" length="3.34" shape="451.34,624.93 451.28,625.02 450.48,625.42 449.68,625.02 448.88,623.82"/>
    </edge>
    <edge id=":B4_6" function="internal">
        <lane id=":B4_6_0" index="0" speed="6.69" length="6.31" shape="445.71,628.87 447.10,627.98 448.09,626.84 448.69,625.46 448.88,623.82"/>
    </edge>
    <edge id=":B4_7" function="internal">
        <lane id=":B4_7_0" index="0" speed="8.23" length="9.92" shape="445.71,628.87 448.16,628.03 450.53,627.93 452.82,628.56 455.02,629.91"/>
    </edge>
    <edge id=":B4_8" function="internal">
        <lane id=":B4_8_0" index="0" speed="3.65" length="4.67" shape="445.71,628.87 447.14,629.07 447.85,629.61 447.84,630.51 447.10,631.75"/>
    </edge>
    <edge id=":B5_0" function="internal">
        <lane id=":B5_0_0" index="0" speed="6.69" length="6.31" shape="448.88,546.09 448.69,544.46 448.09,543.07 447.10,541.93 445.71,541.05"/>
    </edge>
    <edge id=":B5_1" function="internal">
        <lane id=":B5_1_0" index="0" speed="9.48" length="9.88" shape="448.88,546.09 449.14,543.57 449.92,541.30 451.21,539.27 453.02,537.50"/>
    </edge>
    <edge id=":B5_2" function="internal">
        <lane id=":B5_2_0" index="0" speed="3.65" length="1.44" shape="448.88,546.09 449.68,544.89"/>
    </edge>
    <edge id=":B5_9" function="internal">
        <lane id=":B5_9_0" index="0" speed="3.65" length="3.23" shape="449.68,544.89 450.48,544.49 451.28,544.89 452.08,546.09"/>
    </edge>
    <edge id=":B5_3" function="internal">
        <lane id=":B5_3_0" index="0" speed="8.06" length="7.00" shape="455.02,540.00 453.74,541.26 452.82,542.69 452.27,544.30 452.08,546.09"/>
    </edge>
    <edge id=":B5_4" function="internal">
        <lane id=":B5_4_0" index="0" speed="8.23" length="2.59" shape="455.02,540.00 452.82,541.36"/>
    </edge>
    <edge id=":B5_5" function="internal">
        <lane id=":B5_5_0" index="0" speed="3.65" length="1.33" shape="455.02,540.00 453.69,540.11"/>
    </edge>
    <edge id=":B5_10" function="internal">
        <lane id=":B5_10_0" index="0" speed="8.23" length="7.33" shape="452.82,541.36 450.53,541.98 448.16,541.88 445.71,541.05"/>
    </edge>
    <edge id=":B5_11" function="internal">
        <lane id=":B5_11_0" index="0" speed="3.65" length="3.34" shape="453.69,540.11 453.58,540.12 452.77,539.75 452.58,538.87 453.02,537.50"/>
    </edge>
    <edge id=":B5_6" function="internal">
        <lane id=":B5_6_0" index="0" speed="6.69" length="6.31" shape="447.10,538.16 448.66,538.69 450.17,538.76 451.62,538.36 453.02,537.50"/>
    </edge>
    <edge id=":B5_7" function="internal">
        <lane id=":B5_7_0" index="0" speed="8.23" length="9.92" shape="447.10,538.16 449.28,539.56 450.84,541.35 451.77,543.52 452.08,546.09"/>
    </edge>
    <edge id=":B5_8" function="internal">
        <lane id=":B5_8_0" index="0" speed="3.65" length="4.67" shape="447.10,538.16 447.84,539.41 447.85,540.30 447.14,540.85 445.71,541.05"/>
    </edge>
    <edge id=":B6_0" function="internal">
        <lane id=":B6_0_0" index="0" speed="8.06" length="7.00" shape="522.38,490.03 520.60,489.81 518.91,489.99 517.30,490.56 515.79,491.54"/>
    </edge>
    <edge id=":B6_1" function="internal">
        <lane id=":B6_1_0" index="0" speed="8.23" length="2.59" shape="522.38,490.03 519.95,489.16"/>
    </edge>
    <edge id=":B6_2" function="internal">
        <lane id=":B6_2_0" index="0" speed="3.65" length="1.33" shape="522.38,490.03 521.47,489.06"/>
    </edge>
    <edge id=":B6_9" function="internal">
        <lane id=":B6_9_0" index="0" speed="8.23" length="7.33" shape="519.95,489.16 518.03,487.76 516.64,485.84 515.76,483.41"/>
    </edge>
    <edge id=":B6_10" function="internal">
        <lane id=":B6_10_0" index="0" speed="3.65" length="3.34" shape="521.47,489.06 521.39,488.98 521.18,488.11 521.75,487.42 523.10,486.91"/>
    </edge>
    <edge id=":B6_3" function="internal">
        <lane id=":B6_3_0" index="0" speed="6.69" length="6.31" shape="518.88,482.70 519.44,484.25 520.33,485.47 521.55,486.35 523.10,486.91"/>
    </edge>
    <edge id=":B6_4" function="internal">
        <lane id=":B6_4_0" index="0" speed="8.23" length="9.92" shape="518.88,482.70 519.15,485.27 518.72,487.60 517.60,489.69 515.79,491.54"/>
    </edge>
    <edge id=":B6_5" function="internal">
        <lane id=":B6_5_0" index="0" speed="3.65" length="4.67" shape="518.88,482.70 518.37,484.05 517.68,484.61 516.81,484.40 515.76,483.41"/>
    </edge>
    <edge id=":B6_6" function="internal">
        <lane id=":B6_6_0" index="0" speed="6.69" length="6.31" shape="513.79,489.03 514.95,487.86 515.66,486.53 515.93,485.05 515.76,483.41"/>
    </edge>
    <edge id=":B6_7" function="internal">
        <lane id=":B6_7_0" index="0" speed="9.48" length="9.88" shape="513.79,489.03 515.93,487.66 518.19,486.85 520.58,486.60 523.10,486.91"/>
    </edge>
    <edge id=":B6_8" function="internal">
        <lane id=":B6_8_0" index="0" speed="3.65" length="1.44" shape="513.79,489.03 515.23,488.91"/>
    </edge>
    <edge id=":B6_11" function="internal">
        <lane id=":B6_11_0" index="0" speed="3.65" length="3.23" shape="515.23,488.91 516.04,489.29 516.23,490.16 515.79,491.54"/>
    </edge>
    <edge id=":B7_0" function="internal">
        <lane id=":B7_0_0" index="0" speed="8.06" length="7.00" shape="603.45,511.54 602.51,510.01 601.32,508.80 599.87,507.90 598.16,507.33"/>
    </edge>
    <edge id=":B7_1" function="internal">
        <lane id=":B7_1_0" index="0" speed="8.23" length="2.59" shape="603.45,511.54 602.62,509.09"/>
    </edge>
    <edge id=":B7_2" function="internal">
        <lane id=":B7_2_0" index="0" speed="3.65" length="1.33" shape="603.45,511.54 603.64,510.22"/>
    </edge>
    <edge id=":B7_9" function="internal">
        <lane id=":B7_9_0" index="0" speed="8.23" length="7.33" shape="602.62,509.09 602.51,506.73 603.14,504.44 604.50,502.24"/>
    </edge>
    <edge id=":B7_10" function="internal">
        <lane id=":B7_10_0" index="0" speed="3.65" length="3.34" shape="603.64,510.22 603.65,510.12 604.20,509.41 605.09,509.42 606.33,510.16"/>
    </edge>
    <edge id=":B7_3" function="internal">
        <lane id=":B7_3_0" index="0" speed="6.69" length="6.31" shape="607.00,504.23 606.14,505.64 605.74,507.09 605.80,508.60 606.33,510.16"/>
    </edge>
    <edge id=":B7_4" function="internal">
        <lane id=":B7_4_0" index="0" speed="8.23" length="9.92" shape="607.00,504.23 605.16,506.05 603.07,507.17 600.74,507.59 598.16,507.33"/>
    </edge>
    <edge id=":B7_5" function="internal">
        <lane id=":B7_5_0" index="0" speed="3.65" length="4.67" shape="607.00,504.23 605.63,504.67 604.75,504.49 604.38,503.68 604.50,502.24"/>
    </edge>
    <edge id=":B7_6" function="internal">
        <lane id=":B7_6_0" index="0" speed="6.69" length="6.31" shape="598.88,504.21 600.51,504.38 602.00,504.11 603.33,503.39 604.50,502.24"/>
    </edge>
    <edge id=":B7_7" function="internal">
        <lane id=":B7_7_0" index="0" speed="9.48" length="9.88" shape="598.88,504.21 601.28,505.02 603.32,506.28 605.01,507.99 606.33,510.16"/>
    </edge>
    <edge id=":B7_8" function="internal">
        <lane id=":B7_8_0" index="0" speed="3.65" length="1.44" shape="598.88,504.21 599.87,505.25"/>
    </edge>
    <edge id=":B7_11" function="internal">
        <lane id=":B7_11_0" index="0" speed="3.65" length="3.23" shape="599.87,505.25 600.08,506.12 599.51,506.81 598.16,507.33"/>
    </edge>
    <edge id=":C1_0" function="internal">
        <lane id=":C1_0_0" index="0" speed="8.94" length="11.80" shape="746.59,586.56 744.18,587.01 741.96,588.38 739.93,590.66 738.08,593.84"/>
    </edge>
    <edge id=":C1_1" function="internal">
        <lane id=":C1_1_0" index="0" speed="13.89" length="15.10" shape="746.59,586.56 731.49,586.56"/>
    </edge>
    <edge id=":C1_2" function="internal">
        <lane id=":C1_2_0" index="0" speed="10.14" length="3.58" shape="746.59,586.56 743.25,585.99 743.08,585.90"/>
    </edge>
    <edge id=":C1_3" function="internal">
        <lane id=":C1_3_0" index="0" speed="3.65" length="1.44" shape="746.59,586.56 745.39,585.76"/>
    </edge>
    <edge id=":C1_16" function="internal">
        <lane id=":C1_16_0" index="0" speed="10.14" length="11.81" shape="743.08,585.90 740.23,584.28 737.55,581.44 735.19,577.46"/>
    </edge>
    <edge id=":C1_17" function="internal">
        <lane id=":C1_17_0" index="0" speed="3.65" length="3.23" shape="745.39,585.76 744.99,584.96 745.39,584.16 746.59,583.36"/>
    </edge>
    <edge id=":C1_4" function="internal">
        <lane id=":C1_4_0" index="0" speed="8.94" length="11.80" shape="738.08,576.07 739.93,579.26 741.96,581.54 744.18,582.90 746.59,583.36"/>
    </edge>
    <edge id=":C1_5" function="internal">
        <lane id=":C1_5_0" index="0" speed="12.79" length="18.40" shape="738.08,576.07 739.68,580.51 740.22,584.96 739.68,589.40 738.08,593.84"/>
    </edge>
    <edge id=":C1_6" function="internal">
        <lane id=":C1_6_0" index="0" speed="7.44" length="16.31" shape="738.08,576.07 739.56,580.66 738.96,583.94 736.27,585.90 731.49,586.56"/>
    </edge>
    <edge id=":C1_7" function="internal">
        <lane id=":C1_7_0" index="0" speed="3.65" length="4.67" shape="738.08,576.07 737.88,577.50 737.33,578.21 736.44,578.19 735.19,577.46"/>
    </edge>
    <edge id=":C1_8" function="internal">
        <lane id=":C1_8_0" index="0" speed="5.75" length="9.17" shape="731.49,583.36 734.18,582.99 735.69,581.88 736.03,580.04 735.19,577.46"/>
    </edge>
    <edge id=":C1_9" function="internal">
        <lane id=":C1_9_0" index="0" speed="13.89" length="15.10" shape="731.49,583.36 746.59,583.36"/>
    </edge>
    <edge id=":C1_10" function="internal">
        <lane id=":C1_10_0" index="0" speed="7.44" length="4.82" shape="731.49,583.36 736.27,584.01"/>
    </edge>
    <edge id=":C1_11" function="internal">
        <lane id=":C1_11_0" index="0" speed="3.65" length="1.44" shape="731.49,583.36 732.69,584.16"/>
    </edge>
    <edge id=":C1_18" function="internal">
        <lane id=":C1_18_0" index="0" speed="7.44" length="11.49" shape="736.27,584.01 738.96,585.98 739.56,589.26 738.08,593.84"/>
    </edge>
    <edge id=":C1_19" function="internal">
        <lane id=":C1_19_0" index="0" speed="3.65" length="3.23" shape="732.69,584.16 733.09,584.96 732.69,585.76 731.49,586.56"/>
    </edge>
    <edge id=":C1_12" function="internal">
        <lane id=":C1_12_0" index="0" speed="5.75" length="9.17" shape="735.19,592.45 736.03,589.87 735.69,588.03 734.18,586.93 731.49,586.56"/>
    </edge>
    <edge id=":C1_13" function="internal">
        <lane id=":C1_13_0" index="0" speed="11.78" length="15.52" shape="735.19,592.45 736.55,588.71 737.00,584.96 736.55,581.21 735.19,577.46"/>
    </edge>
    <edge id=":C1_14" function="internal">
        <lane id=":C1_14_0" index="0" speed="10.14" length="15.39" shape="735.19,592.45 737.55,588.47 740.23,585.63 743.25,583.93 746.59,583.36"/>
    </edge>
    <edge id=":C1_15" function="internal">
        <lane id=":C1_15_0" index="0" speed="3.65" length="4.67" shape="735.19,592.45 736.44,591.72 737.33,591.71 737.88,592.41 738.08,593.84"/>
    </edge>
    <edge id=":C2_0" function="internal">
        <lane id=":C2_0_0" index="0" speed="8.94" length="11.80" shape="667.78,747.02 665.92,745.42 663.46,744.53 660.42,744.36 656.77,744.91"/>
    </edge>
    <edge id=":C2_1" function="internal">
        <lane id=":C2_1_0" index="0" speed="13.89" length="15.10" shape="667.78,747.02 658.36,735.21"/>
    </edge>
    <edge id=":C2_2" function="internal">
        <lane id=":C2_2_0" index="0" speed="10.14" length="3.58" shape="667.78,747.02 666.14,744.05 666.11,743.87"/>
    </edge>
    <edge id=":C2_3" function="internal">
        <lane id=":C2_3_0" index="0" speed="3.65" length="1.44" shape="667.78,747.02 667.65,745.58"/>
    </edge>
    <edge id=":C2_16" function="internal">
        <lane id=":C2_16_0" index="0" speed="10.14" length="11.81" shape="666.11,743.87 665.59,740.63 666.14,736.76 667.78,732.44"/>
    </edge>
    <edge id=":C2_17" function="internal">
        <lane id=":C2_17_0" index="0" speed="3.65" length="3.23" shape="667.65,745.58 668.03,744.77 668.90,744.59 670.28,745.02"/>
    </edge>
    <edge id=":C2_4" function="internal">
        <lane id=":C2_4_0" index="0" speed="8.94" length="11.80" shape="670.67,733.82 669.33,737.26 668.81,740.27 669.13,742.86 670.28,745.02"/>
    </edge>
    <edge id=":C2_5" function="internal">
        <lane id=":C2_5_0" index="0" speed="12.79" length="18.40" shape="670.67,733.82 668.19,737.85 665.05,741.04 661.24,743.39 656.77,744.91"/>
    </edge>
    <edge id=":C2_6" function="internal">
        <lane id=":C2_6_0" index="0" speed="7.44" length="16.31" shape="670.67,733.82 668.00,737.84 665.06,739.41 661.85,738.54 658.36,735.21"/>
    </edge>
    <edge id=":C2_7" function="internal">
        <lane id=":C2_7_0" index="0" speed="3.65" length="4.67" shape="670.67,733.82 669.42,734.56 668.53,734.57 667.98,733.86 667.78,732.44"/>
    </edge>
    <edge id=":C2_8" function="internal">
        <lane id=":C2_8_0" index="0" speed="5.75" length="9.17" shape="660.86,733.22 662.82,735.09 664.63,735.58 666.29,734.70 667.78,732.44"/>
    </edge>
    <edge id=":C2_9" function="internal">
        <lane id=":C2_9_0" index="0" speed="13.89" length="15.10" shape="660.86,733.22 670.28,745.02"/>
    </edge>
    <edge id=":C2_10" function="internal">
        <lane id=":C2_10_0" index="0" speed="7.44" length="4.82" shape="660.86,733.22 663.33,737.36"/>
    </edge>
    <edge id=":C2_11" function="internal">
        <lane id=":C2_11_0" index="0" speed="3.65" length="1.44" shape="660.86,733.22 660.98,734.65"/>
    </edge>
    <edge id=":C2_18" function="internal">
        <lane id=":C2_18_0" index="0" speed="7.44" length="11.49" shape="663.33,737.36 663.47,740.69 661.28,743.20 656.77,744.91"/>
    </edge>
    <edge id=":C2_19" function="internal">
        <lane id=":C2_19_0" index="0" speed="3.65" length="3.23" shape="660.98,734.65 660.61,735.46 659.73,735.65 658.36,735.21"/>
    </edge>
    <edge id=":C2_12" function="internal">
        <lane id=":C2_12_0" index="0" speed="5.75" length="9.17" shape="656.06,741.79 658.60,740.83 659.82,739.41 659.75,737.54 658.36,735.21"/>
    </edge>
    <edge id=":C2_13" function="internal">
        <lane id=":C2_13_0" index="0" speed="11.78" length="15.52" shape="656.06,741.79 659.83,740.51 663.05,738.52 665.70,735.83 667.78,732.44"/>
    </edge>
    <edge id=":C2_14" function="internal">
        <lane id=":C2_14_0" index="0" speed="10.14" length="15.39" shape="656.06,741.79 660.64,741.15 664.54,741.47 667.75,742.77 670.28,745.02"/>
    </edge>
    <edge id=":C2_15" function="internal">
        <lane id=":C2_15_0" index="0" speed="3.65" length="4.67" shape="656.06,741.79 657.41,742.30 657.97,742.99 657.76,743.86 656.77,744.91"/>
    </edge>
    <edge id=":C3_0" function="internal">
        <lane id=":C3_0_0" index="0" speed="8.94" length="11.80" shape="505.30,779.48 501.78,780.57 499.11,782.05 497.28,783.91 496.30,786.16"/>
    </edge>
    <edge id=":C3_1" function="internal">
        <lane id=":C3_1_0" index="0" speed="12.79" length="18.40" shape="505.30,779.48 500.61,780.05 496.16,779.59 491.95,778.08 487.97,775.52"/>
    </edge>
    <edge id=":C3_2" function="internal">
        <lane id=":C3_2_0" index="0" speed="7.44" length="16.31" shape="505.30,779.48 500.50,779.90 497.43,778.58 496.12,775.52 496.54,770.72"/>
    </edge>
    <edge id=":C3_3" function="internal">
        <lane id=":C3_3_0" index="0" speed="3.65" length="4.67" shape="505.30,779.48 503.95,778.97 503.38,778.28 503.59,777.41 504.59,776.36"/>
    </edge>
    <edge id=":C3_4" function="internal">
        <lane id=":C3_4_0" index="0" speed="5.75" length="9.17" shape="499.66,771.43 499.42,774.13 500.16,775.86 501.88,776.60 504.59,776.36"/>
    </edge>
    <edge id=":C3_5" function="internal">
        <lane id=":C3_5_0" index="0" speed="13.89" length="15.10" shape="499.66,771.43 496.30,786.16"/>
    </edge>
    <edge id=":C3_6" function="internal">
        <lane id=":C3_6_0" index="0" speed="7.44" length="4.82" shape="499.66,771.43 497.96,775.94"/>
    </edge>
    <edge id=":C3_7" function="internal">
        <lane id=":C3_7_0" index="0" speed="3.65" length="1.44" shape="499.66,771.43 498.61,772.43"/>
    </edge>
    <edge id=":C3_16" function="internal">
        <lane id=":C3_16_0" index="0" speed="7.44" length="11.49" shape="497.96,775.94 495.44,778.13 492.11,777.99 487.97,775.52"/>
    </edge>
    <edge id=":C3_17" function="internal">
        <lane id=":C3_17_0" index="0" speed="3.65" length="3.23" shape="498.61,772.43 497.74,772.64 497.05,772.07 496.54,770.72"/>
    </edge>
    <edge id=":C3_8" function="internal">
        <lane id=":C3_8_0" index="0" speed="5.75" length="9.17" shape="489.97,773.02 492.30,774.41 494.17,774.49 495.58,773.26 496.54,770.72"/>
    </edge>
    <edge id=":C3_9" function="internal">
        <lane id=":C3_9_0" index="0" speed="11.78" length="15.52" shape="489.97,773.02 493.32,775.18 496.87,776.45 500.63,776.85 504.59,776.36"/>
    </edge>
    <edge id=":C3_10" function="internal">
        <lane id=":C3_10_0" index="0" speed="10.14" length="15.39" shape="489.97,773.02 493.32,776.20 495.50,779.45 496.49,782.77 496.30,786.16"/>
    </edge>
    <edge id=":C3_11" function="internal">
        <lane id=":C3_11_0" index="0" speed="3.65" length="4.67" shape="489.97,773.02 490.41,774.40 490.22,775.27 489.41,775.65 487.97,775.52"/>
    </edge>
    <edge id=":C3_12" function="internal">
        <lane id=":C3_12_0" index="0" speed="8.94" length="11.80" shape="493.18,785.45 493.27,783.00 492.43,780.53 490.67,778.04 487.97,775.52"/>
    </edge>
    <edge id=":C3_13" function="internal">
        <lane id=":C3_13_0" index="0" speed="13.89" length="15.10" shape="493.18,785.45 496.54,770.72"/>
    </edge>
    <edge id=":C3_14" function="internal">
        <lane id=":C3_14_0" index="0" speed="10.14" length="3.58" shape="493.18,785.45 494.48,782.31 494.61,782.17"/>
    </edge>
    <edge id=":C3_15" function="internal">
        <lane id=":C3_15_0" index="0" speed="3.65" length="1.44" shape="493.18,785.45 494.23,784.45"/>
    </edge>
    <edge id=":C3_18" function="internal">
        <lane id=":C3_18_0" index="0" speed="10.14" length="11.81" shape="494.61,782.17 496.81,779.75 500.18,777.77 504.59,776.36"/>
    </edge>
    <edge id=":C3_19" function="internal">
        <lane id=":C3_19_0" index="0" speed="3.65" length="3.23" shape="494.23,784.45 495.10,784.24 495.79,784.81 496.30,786.16"/>
    </edge>
    <edge id=":C4_0" function="internal">
        <lane id=":C4_0_0" index="0" speed="8.94" length="11.80" shape="366.50,678.65 363.45,676.58 360.63,675.41 358.03,675.15 355.67,675.78"/>
    </edge>
    <edge id=":C4_1" function="internal">
        <lane id=":C4_1_0" index="0" speed="12.79" length="18.40" shape="366.50,678.65 363.13,675.35 360.72,671.58 359.27,667.34 358.79,662.64"/>
    </edge>
    <edge id=":C4_2" function="internal">
        <lane id=":C4_2_0" index="0" speed="7.44" length="16.31" shape="366.50,678.65 363.17,675.16 362.30,671.95 363.87,669.01 367.89,666.35"/>
    </edge>
    <edge id=":C4_3" function="internal">
        <lane id=":C4_3_0" index="0" speed="3.65" length="4.67" shape="366.50,678.65 366.06,677.28 366.25,676.41 367.06,676.03 368.49,676.15"/>
    </edge>
    <edge id=":C4_4" function="internal">
        <lane id=":C4_4_0" index="0" speed="5.75" length="9.17" shape="369.27,669.23 367.01,670.73 366.13,672.38 366.62,674.19 368.49,676.15"/>
    </edge>
    <edge id=":C4_5" function="internal">
        <lane id=":C4_5_0" index="0" speed="13.89" length="15.10" shape="369.27,669.23 355.67,675.78"/>
    </edge>
    <edge id=":C4_6" function="internal">
        <lane id=":C4_6_0" index="0" speed="7.44" length="4.82" shape="369.27,669.23 364.69,670.71"/>
    </edge>
    <edge id=":C4_7" function="internal">
        <lane id=":C4_7_0" index="0" speed="3.65" length="1.44" shape="369.27,669.23 367.85,669.03"/>
    </edge>
    <edge id=":C4_16" function="internal">
        <lane id=":C4_16_0" index="0" speed="7.44" length="11.49" shape="364.69,670.71 361.41,670.11 359.44,667.42 358.79,662.64"/>
    </edge>
    <edge id=":C4_17" function="internal">
        <lane id=":C4_17_0" index="0" speed="3.65" length="3.23" shape="367.85,669.03 367.14,668.48 367.15,667.59 367.89,666.35"/>
    </edge>
    <edge id=":C4_8" function="internal">
        <lane id=":C4_8_0" index="0" speed="5.75" length="9.17" shape="361.99,662.64 362.36,665.33 363.46,666.84 365.31,667.18 367.89,666.35"/>
    </edge>
    <edge id=":C4_9" function="internal">
        <lane id=":C4_9_0" index="0" speed="11.78" length="15.52" shape="361.99,662.64 362.39,666.61 363.61,670.18 365.65,673.36 368.49,676.15"/>
    </edge>
    <edge id=":C4_10" function="internal">