<?xml version="1.0" encoding="UTF-8"?>

<!-- generated on 2024-11-08 13:49:29 by Eclipse SUMO netgenerate Version 1.21.0
<netgenerateConfiguration xmlns:xsi="http://www.w3.org/2001/XMLSchema-instance" xsi:noNamespaceSchemaLocation="http://sumo.dlr.de/xsd/netgenerateConfiguration.xsd">

    <spider_network>
        <spider value="true"/>
        <spider.circle-number value="3"/>
        <spider.attach-length value="100.0"/>
    </spider_network>

    <output>
        <output-file value="generated-nets/spider-nets/spider9.net.xml"/>
    </output>

</netgenerateConfiguration>
-->

<net version="1.20" junctionCornerDetail="5" limitTurnSpeed="5.50" xmlns:xsi="http://www.w3.org/2001/XMLSchema-instance" xsi:noNamespaceSchemaLocation="http://sumo.dlr.de/xsd/net_file.xsd">

    <location netOffset="360.39,389.97" convBoundary="0.00,0.00,760.39,779.94" origBoundary="-360.39,-389.97,400.00,389.97" projParameter="!"/>

    <edge id=":A1_0" function="internal">
        <lane id=":A1_0_0" index="0" speed="5.54" length="9.46" shape="365.77,399.29 363.67,397.23 361.94,396.78 360.58,397.94 359.58,400.71"/>
    </edge>
    <edge id=":A1_1" function="internal">
        <lane id=":A1_1_0" index="0" speed="9.25" length="16.00" shape="365.77,399.29 362.69,396.34 359.28,394.81 355.55,394.71 351.49,396.03"/>
    </edge>
    <edge id=":A1_2" function="internal">
        <lane id=":A1_2_0" index="0" speed="13.89" length="20.14" shape="365.77,399.29 362.64,395.99 358.46,392.39 354.01,389.11 350.10,386.79"/>
    </edge>
    <edge id=":A1_3" function="internal">
        <lane id=":A1_3_0" index="0" speed="13.89" length="21.56" shape="365.77,399.29 363.16,395.31 360.36,389.98 357.95,384.48 356.46,379.95"/>
    </edge>
    <edge id=":A1_4" function="internal">
        <lane id=":A1_4_0" index="0" speed="10.38" length="20.36" shape="365.77,399.29 362.99,394.63 362.06,389.97 362.99,385.31 365.77,380.65"/>
    </edge>
    <edge id=":A1_5" function="internal">
        <lane id=":A1_5_0" index="0" speed="6.53" length="13.76" shape="365.77,399.29 364.96,396.25 365.94,392.65 368.15,389.63 371.03,388.37"/>
    </edge>
    <edge id=":A1_6" function="internal">
        <lane id=":A1_6_0" index="0" speed="3.65" length="4.67" shape="365.77,399.29 365.65,397.85 366.03,397.04 366.90,396.86 368.28,397.30"/>
    </edge>
    <edge id=":A1_7" function="internal">
        <lane id=":A1_7_0" index="0" speed="5.54" length="9.46" shape="371.03,391.57 368.11,391.93 366.68,393.00 366.74,394.79 368.28,397.30"/>
    </edge>
    <edge id=":A1_8" function="internal">
        <lane id=":A1_8_0" index="0" speed="9.25" length="16.00" shape="371.03,391.57 366.80,392.14 363.48,393.85 361.08,396.71 359.58,400.71"/>
    </edge>
    <edge id=":A1_9" function="internal">
        <lane id=":A1_9_0" index="0" speed="13.89" length="20.14" shape="371.03,391.57 366.50,391.96 361.08,392.99 355.74,394.42 351.49,396.03"/>
    </edge>
    <edge id=":A1_10" function="internal">
        <lane id=":A1_10_0" index="0" speed="13.89" length="21.56" shape="371.03,391.57 366.29,391.13 360.38,390.00 354.57,388.46 350.10,386.79"/>
    </edge>
    <edge id=":A1_11" function="internal">
        <lane id=":A1_11_0" index="0" speed="10.38" length="20.36" shape="371.03,391.57 365.65,390.84 361.43,388.67 358.36,385.03 356.46,379.95"/>
    </edge>
    <edge id=":A1_12" function="internal">
        <lane id=":A1_12_0" index="0" speed="6.53" length="13.76" shape="371.03,391.57 368.15,390.31 365.94,387.30 364.96,383.69 365.77,380.65"/>
    </edge>
    <edge id=":A1_13" function="internal">
        <lane id=":A1_13_0" index="0" speed="3.65" length="4.67" shape="371.03,391.57 369.83,390.77 369.43,389.97 369.83,389.17 371.03,388.37"/>
    </edge>
    <edge id=":A1_14" function="internal">
        <lane id=":A1_14_0" index="0" speed="5.54" length="9.46" shape="368.28,382.65 366.74,385.15 366.68,386.94 368.11,388.01 371.03,388.37"/>
    </edge>
    <edge id=":A1_15" function="internal">
        <lane id=":A1_15_0" index="0" speed="9.25" length="16.00" shape="368.28,382.65 366.08,386.31 365.35,389.97 366.08,393.63 368.28,397.30"/>
    </edge>
    <edge id=":A1_16" function="internal">
        <lane id=":A1_16_0" index="0" speed="13.89" length="20.14" shape="368.28,382.65 365.76,386.43 363.18,391.31 360.97,396.38 359.58,400.71"/>
    </edge>
    <edge id=":A1_17" function="internal">
        <lane id=":A1_17_0" index="0" speed="13.89" length="21.56" shape="368.28,382.65 364.97,386.08 360.40,389.99 355.58,393.57 351.49,396.03"/>
    </edge>
    <edge id=":A1_18" function="internal">
        <lane id=":A1_18_0" index="0" speed="10.38" length="20.36" shape="368.28,382.65 364.35,386.40 360.02,388.34 355.27,388.47 350.10,386.79"/>
    </edge>
    <edge id=":A1_19" function="internal">
        <lane id=":A1_19_0" index="0" speed="6.53" length="13.76" shape="368.28,382.65 365.49,384.11 361.76,383.96 358.33,382.48 356.46,379.95"/>
    </edge>
    <edge id=":A1_20" function="internal">
        <lane id=":A1_20_0" index="0" speed="3.65" length="4.67" shape="368.28,382.65 366.90,383.09 366.03,382.90 365.65,382.09 365.77,380.65"/>
    </edge>
    <edge id=":A1_21" function="internal">
        <lane id=":A1_21_0" index="0" speed="5.54" length="9.46" shape="359.58,379.24 360.58,382.00 361.94,383.16 363.67,382.71 365.77,380.65"/>
    </edge>
    <edge id=":A1_22" function="internal">
        <lane id=":A1_22_0" index="0" speed="9.25" length="16.00" shape="359.58,379.24 361.08,383.23 363.48,386.09 366.80,387.80 371.03,388.37"/>
    </edge>
    <edge id=":A1_23" function="internal">
        <lane id=":A1_23_0" index="0" speed="13.89" length="20.14" shape="359.58,379.24 360.97,383.57 363.18,388.63 365.76,393.51 368.28,397.30"/>
    </edge>
    <edge id=":A1_24" function="internal">
        <lane id=":A1_24_0" index="0" speed="13.89" length="21.56" shape="359.58,379.24 360.20,383.96 360.41,389.97 360.20,395.98 359.58,400.71"/>
    </edge>
    <edge id=":A1_25" function="internal">
        <lane id=":A1_25_0" index="0" speed="10.38" length="20.36" shape="359.58,379.24 360.07,384.65 358.88,389.25 356.02,393.04 351.49,396.03"/>
    </edge>
    <edge id=":A1_26" function="internal">
        <lane id=":A1_26_0" index="0" speed="6.53" length="13.76" shape="359.58,379.24 358.99,382.33 356.54,385.15 353.25,386.91 350.10,386.79"/>
    </edge>
    <edge id=":A1_27" function="internal">
        <lane id=":A1_27_0" index="0" speed="3.65" length="4.67" shape="359.58,379.24 359.07,380.59 358.37,381.15 357.51,380.94 356.46,379.95"/>
    </edge>
    <edge id=":A1_28" function="internal">
        <lane id=":A1_28_0" index="0" speed="5.54" length="9.46" shape="351.49,383.91 354.28,384.85 356.03,384.51 356.76,382.87 356.46,379.95"/>
    </edge>
    <edge id=":A1_29" function="internal">
        <lane id=":A1_29_0" index="0" speed="9.25" length="16.00" shape="351.49,383.91 355.55,385.23 359.28,385.13 362.69,383.60 365.77,380.65"/>
    </edge>
    <edge id=":A1_30" function="internal">
        <lane id=":A1_30_0" index="0" speed="13.89" length="20.14" shape="351.49,383.91 355.74,385.52 361.08,386.95 366.50,387.98 371.03,388.37"/>
    </edge>
    <edge id=":A1_31" function="internal">
        <lane id=":A1_31_0" index="0" speed="13.89" length="21.56" shape="351.49,383.91 355.58,386.37 360.40,389.95 364.97,393.86 368.28,397.30"/>
    </edge>
    <edge id=":A1_32" function="internal">
        <lane id=":A1_32_0" index="0" speed="10.38" length="20.36" shape="351.49,383.91 356.02,386.90 358.88,390.70 360.07,395.30 359.58,400.71"/>
    </edge>
    <edge id=":A1_33" function="internal">
        <lane id=":A1_33_0" index="0" speed="6.53" length="13.76" shape="351.49,383.91 353.54,386.30 354.22,389.97 353.54,393.64 351.49,396.03"/>
    </edge>
    <edge id=":A1_34" function="internal">
        <lane id=":A1_34_0" index="0" speed="3.65" length="4.67" shape="351.49,383.91 352.23,385.15 352.24,386.05 351.53,386.59 350.10,386.79"/>
    </edge>
    <edge id=":A1_35" function="internal">
        <lane id=":A1_35_0" index="0" speed="5.54" length="9.46" shape="350.10,393.15 352.58,391.56 353.40,389.97 352.58,388.38 350.10,386.79"/>
    </edge>
    <edge id=":A1_36" function="internal">
        <lane id=":A1_36_0" index="0" speed="9.25" length="16.00" shape="350.10,393.15 353.67,390.80 355.91,387.82 356.84,384.20 356.46,379.95"/>
    </edge>
    <edge id=":A1_37" function="internal">
        <lane id=":A1_37_0" index="0" speed="13.89" length="20.14" shape="350.10,393.15 354.01,390.83 358.46,387.55 362.64,383.95 365.77,380.65"/>
    </edge>
    <edge id=":A1_38" function="internal">
        <lane id=":A1_38_0" index="0" speed="13.89" length="21.56" shape="350.10,393.15 354.57,391.49 360.38,389.95 366.29,388.81 371.03,388.37"/>
    </edge>
    <edge id=":A1_39" function="internal">
        <lane id=":A1_39_0" index="0" speed="10.38" length="20.36" shape="350.10,393.15 355.27,391.47 360.02,391.60 364.35,393.54 368.28,397.30"/>
    </edge>
    <edge id=":A1_40" function="internal">
        <lane id=":A1_40_0" index="0" speed="6.53" length="13.76" shape="350.10,393.15 353.25,393.04 356.54,394.79 358.99,397.62 359.58,400.71"/>
    </edge>
    <edge id=":A1_41" function="internal">
        <lane id=":A1_41_0" index="0" speed="3.65" length="4.67" shape="350.10,393.15 351.53,393.35 352.24,393.90 352.23,394.79 351.49,396.03"/>
    </edge>
    <edge id=":A1_42" function="internal">
        <lane id=":A1_42_0" index="0" speed="5.54" length="9.46" shape="356.46,399.99 356.76,397.07 356.03,395.43 354.28,395.09 351.49,396.03"/>
    </edge>
    <edge id=":A1_43" function="internal">
        <lane id=":A1_43_0" index="0" speed="9.25" length="16.00" shape="356.46,399.99 356.84,395.74 355.91,392.13 353.67,389.14 350.10,386.79"/>
    </edge>
    <edge id=":A1_44" function="internal">
        <lane id=":A1_44_0" index="0" speed="13.89" length="20.14" shape="356.46,399.99 357.08,395.49 357.29,389.97 357.08,384.45 356.46,379.95"/>
    </edge>
    <edge id=":A1_45" function="internal">
        <lane id=":A1_45_0" index="0" speed="13.89" length="21.56" shape="356.46,399.99 357.95,395.46 360.36,389.96 363.16,384.64 365.77,380.65"/>
    </edge>
    <edge id=":A1_46" function="internal">
        <lane id=":A1_46_0" index="0" speed="10.38" length="20.36" shape="356.46,399.99 358.36,394.91 361.43,391.28 365.65,389.10 371.03,388.37"/>
    </edge>
    <edge id=":A1_47" function="internal">
        <lane id=":A1_47_0" index="0" speed="6.53" length="13.76" shape="356.46,399.99 358.33,397.47 361.76,395.98 365.49,395.83 368.28,397.30"/>
    </edge>
    <edge id=":A1_48" function="internal">
        <lane id=":A1_48_0" index="0" speed="3.65" length="4.67" shape="356.46,399.99 357.51,399.00 358.37,398.79 359.07,399.36 359.58,400.71"/>
    </edge>
    <edge id=":B1_0" function="internal">
        <lane id=":B1_0_0" index="0" speed="8.94" length="11.80" shape="466.40,391.57 463.99,392.03 461.77,393.39 459.73,395.67 457.88,398.86"/>
    </edge>
    <edge id=":B1_1" function="internal">
        <lane id=":B1_1_0" index="0" speed="13.89" length="15.10" shape="466.40,391.57 451.29,391.57"/>
    </edge>
    <edge id=":B1_2" function="internal">
        <lane id=":B1_2_0" index="0" speed="10.14" length="3.58" shape="466.40,391.57 463.05,391.00 462.89,390.91"/>
    </edge>
    <edge id=":B1_3" function="internal">
        <lane id=":B1_3_0" index="0" speed="3.65" length="1.44" shape="466.40,391.57 465.20,390.77"/>
    </edge>
    <edge id=":B1_16" function="internal">
        <lane id=":B1_16_0" index="0" speed="10.14" length="11.81" shape="462.89,390.91 460.04,389.30 457.36,386.45 455.00,382.47"/>
    </edge>
    <edge id=":B1_17" function="internal">
        <lane id=":B1_17_0" index="0" speed="3.65" length="3.23" shape="465.20,390.77 464.80,389.97 465.20,389.17 466.40,388.37"/>
    </edge>
    <edge id=":B1_4" function="internal">
        <lane id=":B1_4_0" index="0" speed="8.94" length="11.80" shape="457.88,381.08 459.73,384.27 461.77,386.55 463.99,387.92 466.40,388.37"/>
    </edge>
    <edge id=":B1_5" function="internal">
        <lane id=":B1_5_0" index="0" speed="12.79" length="18.40" shape="457.88,381.08 459.49,385.53 460.02,389.97 459.49,394.41 457.88,398.86"/>
    </edge>
    <edge id=":B1_6" function="internal">
        <lane id=":B1_6_0" index="0" speed="7.44" length="16.31" shape="457.88,381.08 459.37,385.67 458.76,388.95 456.07,390.92 451.29,391.57"/>
    </edge>
    <edge id=":B1_7" function="internal">
        <lane id=":B1_7_0" index="0" speed="3.65" length="4.67" shape="457.88,381.08 457.68,382.51 457.14,383.22 456.24,383.21 455.00,382.47"/>
    </edge>
    <edge id=":B1_8" function="internal">
        <lane id=":B1_8_0" index="0" speed="5.75" length="9.17" shape="451.29,388.37 453.98,388.00 455.49,386.90 455.83,385.05 455.00,382.47"/>
    </edge>
    <edge id=":B1_9" function="internal">
        <lane id=":B1_9_0" index="0" speed="13.89" length="15.10" shape="451.29,388.37 466.40,388.37"/>
    </edge>
    <edge id=":B1_10" function="internal">
        <lane id=":B1_10_0" index="0" speed="7.44" length="4.82" shape="451.29,388.37 456.07,389.03"/>
    </edge>
    <edge id=":B1_11" function="internal">
        <lane id=":B1_11_0" index="0" speed="3.65" length="1.44" shape="451.29,388.37 452.49,389.17"/>
    </edge>
    <edge id=":B1_18" function="internal">
        <lane id=":B1_18_0" index="0" speed="7.44" length="11.49" shape="456.07,389.03 458.76,390.99 459.37,394.27 457.88,398.86"/>
    </edge>
    <edge id=":B1_19" function="internal">
        <lane id=":B1_19_0" index="0" speed="3.65" length="3.23" shape="452.49,389.17 452.89,389.97 452.49,390.77 451.29,391.57"/>
    </edge>
    <edge id=":B1_12" function="internal">
        <lane id=":B1_12_0" index="0" speed="5.75" length="9.17" shape="455.00,397.47 455.83,394.89 455.49,393.05 453.98,391.94 451.29,391.57"/>
    </edge>
    <edge id=":B1_13" function="internal">
        <lane id=":B1_13_0" index="0" speed="11.78" length="15.52" shape="455.00,397.47 456.35,393.72 456.81,389.97 456.35,386.22 455.00,382.47"/>
    </edge>
    <edge id=":B1_14" function="internal">
        <lane id=":B1_14_0" index="0" speed="10.14" length="15.39" shape="455.00,397.47 457.36,393.49 460.04,390.65 463.05,388.94 466.40,388.37"/>
    </edge>
    <edge id=":B1_15" function="internal">
        <lane id=":B1_15_0" index="0" speed="3.65" length="4.67" shape="455.00,397.47 456.24,396.74 457.14,396.72 457.68,397.43 457.88,398.86"/>
    </edge>
    <edge id=":B2_0" function="internal">
        <lane id=":B2_0_0" index="0" speed="8.94" length="11.80" shape="425.23,473.85 423.38,472.25 420.92,471.37 417.87,471.19 414.23,471.74"/>
    </edge>
    <edge id=":B2_1" function="internal">
        <lane id=":B2_1_0" index="0" speed="13.89" length="15.10" shape="425.23,473.85 415.82,462.04"/>
    </edge>
    <edge id=":B2_2" function="internal">
        <lane id=":B2_2_0" index="0" speed="10.14" length="3.58" shape="425.23,473.85 423.59,470.88 423.56,470.70"/>
    </edge>
    <edge id=":B2_3" function="internal">
        <lane id=":B2_3_0" index="0" speed="3.65" length="1.44" shape="425.23,473.85 425.11,472.41"/>
    </edge>
    <edge id=":B2_16" function="internal">
        <lane id=":B2_16_0" index="0" speed="10.14" length="11.81" shape="423.56,470.70 423.05,467.46 423.60,463.59 425.24,459.27"/>
    </edge>
    <edge id=":B2_17" function="internal">
        <lane id=":B2_17_0" index="0" speed="3.65" length="3.23" shape="425.11,472.41 425.49,471.60 426.36,471.42 427.74,471.86"/>
    </edge>
    <edge id=":B2_4" function="internal">
        <lane id=":B2_4_0" index="0" speed="8.94" length="11.80" shape="428.12,460.66 426.78,464.09 426.27,467.10 426.59,469.69 427.74,471.86"/>
    </edge>
    <edge id=":B2_5" function="internal">
        <lane id=":B2_5_0" index="0" speed="12.79" length="18.40" shape="428.12,460.66 425.65,464.68 422.51,467.87 418.70,470.22 414.23,471.74"/>
    </edge>
    <edge id=":B2_6" function="internal">
        <lane id=":B2_6_0" index="0" speed="7.44" length="16.31" shape="428.12,460.66 425.46,464.68 422.52,466.25 419.31,465.37 415.82,462.04"/>
    </edge>
    <edge id=":B2_7" function="internal">
        <lane id=":B2_7_0" index="0" speed="3.65" length="4.67" shape="428.12,460.66 426.88,461.39 425.99,461.40 425.44,460.70 425.24,459.27"/>
    </edge>
    <edge id=":B2_8" function="internal">
        <lane id=":B2_8_0" index="0" speed="5.75" length="9.17" shape="418.32,460.05 420.28,461.92 422.09,462.41 423.74,461.53 425.24,459.27"/>
    </edge>
    <edge id=":B2_9" function="internal">
        <lane id=":B2_9_0" index="0" speed="13.89" length="15.10" shape="418.32,460.05 427.74,471.86"/>
    </edge>
    <edge id=":B2_10" function="internal">
        <lane id=":B2_10_0" index="0" speed="7.44" length="4.82" shape="418.32,460.05 420.78,464.19"/>
    </edge>
    <edge id=":B2_11" function="internal">
        <lane id=":B2_11_0" index="0" speed="3.65" length="1.44" shape="418.32,460.05 418.44,461.48"/>
    </edge>
    <edge id=":B2_18" function="internal">
        <lane id=":B2_18_0" index="0" speed="7.44" length="11.49" shape="420.78,464.19 420.92,467.52 418.74,470.04 414.23,471.74"/>
    </edge>
    <edge id=":B2_19" function="internal">
        <lane id=":B2_19_0" index="0" speed="3.65" length="3.23" shape="418.44,461.48 418.06,462.30 417.19,462.48 415.82,462.04"/>
    </edge>
    <edge id=":B2_12" function="internal">
        <lane id=":B2_12_0" index="0" speed="5.75" length="9.17" shape="413.52,468.62 416.05,467.66 417.28,466.25 417.20,464.37 415.82,462.04"/>
    </edge>
    <edge id=":B2_13" function="internal">
        <lane id=":B2_13_0" index="0" speed="11.78" length="15.52" shape="413.52,468.62 417.29,467.34 420.50,465.35 423.15,462.66 425.24,459.27"/>
    </edge>
    <edge id=":B2_14" function="internal">
        <lane id=":B2_14_0" index="0" speed="10.14" length="15.39" shape="413.52,468.62 418.10,467.98 421.99,468.30 425.21,469.60 427.74,471.86"/>
    </edge>
    <edge id=":B2_15" function="internal">
        <lane id=":B2_15_0" index="0" speed="3.65" length="4.67" shape="413.52,468.62 414.86,469.13 415.43,469.82 415.22,470.69 414.23,471.74"/>
    </edge>
    <edge id=":B3_0" function="internal">
        <lane id=":B3_0_0" index="0" speed="8.94" length="11.80" shape="347.36,487.00 343.84,488.09 341.16,489.57 339.34,491.43 338.36,493.68"/>
    </edge>
    <edge id=":B3_1" function="internal">
        <lane id=":B3_1_0" index="0" speed="12.79" length="18.40" shape="347.36,487.00 342.67,487.58 338.22,487.11 334.00,485.60 330.03,483.05"/>
    </edge>
    <edge id=":B3_2" function="internal">
        <lane id=":B3_2_0" index="0" speed="7.44" length="16.31" shape="347.36,487.00 342.55,487.42 339.49,486.11 338.18,483.05 338.60,478.24"/>
    </edge>
    <edge id=":B3_3" function="internal">
        <lane id=":B3_3_0" index="0" speed="3.65" length="4.67" shape="347.36,487.00 346.01,486.49 345.44,485.80 345.65,484.93 346.64,483.88"/>
    </edge>
    <edge id=":B3_4" function="internal">
        <lane id=":B3_4_0" index="0" speed="5.75" length="9.17" shape="341.72,478.96 341.48,481.66 342.22,483.38 343.94,484.12 346.64,483.88"/>
    </edge>
    <edge id=":B3_5" function="internal">
        <lane id=":B3_5_0" index="0" speed="13.89" length="15.10" shape="341.72,478.96 338.36,493.68"/>
    </edge>
    <edge id=":B3_6" function="internal">
        <lane id=":B3_6_0" index="0" speed="7.44" length="4.82" shape="341.72,478.96 340.02,483.47"/>
    </edge>
    <edge id=":B3_7" function="internal">
        <lane id=":B3_7_0" index="0" speed="3.65" length="1.44" shape="341.72,478.96 340.67,479.95"/>
    </edge>
    <edge id=":B3_16" function="internal">
        <lane id=":B3_16_0" index="0" speed="7.44" length="11.49" shape="340.02,483.47 337.50,485.65 334.17,485.51 330.03,483.05"/>
    </edge>
    <edge id=":B3_17" function="internal">
        <lane id=":B3_17_0" index="0" speed="3.65" length="3.23" shape="340.67,479.95 339.80,480.16 339.11,479.59 338.60,478.24"/>
    </edge>
    <edge id=":B3_8" function="internal">
        <lane id=":B3_8_0" index="0" speed="5.75" length="9.17" shape="332.02,480.54 334.35,481.93 336.23,482.01 337.64,480.78 338.60,478.24"/>
    </edge>
    <edge id=":B3_9" function="internal">
        <lane id=":B3_9_0" index="0" speed="11.78" length="15.52" shape="332.02,480.54 335.38,482.70 338.93,483.97 342.69,484.37 346.64,483.88"/>
    </edge>
    <edge id=":B3_10" function="internal">
        <lane id=":B3_10_0" index="0" speed="10.14" length="15.39" shape="332.02,480.54 335.38,483.73 337.55,486.98 338.55,490.29 338.36,493.68"/>
    </edge>
    <edge id=":B3_11" function="internal">
        <lane id=":B3_11_0" index="0" speed="3.65" length="4.67" shape="332.02,480.54 332.46,481.92 332.28,482.79 331.47,483.17 330.03,483.05"/>
    </edge>
    <edge id=":B3_12" function="internal">
        <lane id=":B3_12_0" index="0" speed="8.94" length="11.80" shape="335.24,492.97 335.33,490.52 334.49,488.05 332.73,485.56 330.03,483.05"/>
    </edge>
    <edge id=":B3_13" function="internal">
        <lane id=":B3_13_0" index="0" speed="13.89" length="15.10" shape="335.24,492.97 338.60,478.24"/>
    </edge>
    <edge id=":B3_14" function="internal">
        <lane id=":B3_14_0" index="0" speed="10.14" length="3.58" shape="335.24,492.97 336.54,489.83 336.66,489.70"/>
    </edge>
    <edge id=":B3_15" function="internal">
        <lane id=":B3_15_0" index="0" speed="3.65" length="1.44" shape="335.24,492.97 336.29,491.98"/>
    </edge>
    <edge id=":B3_18" function="internal">
        <lane id=":B3_18_0" index="0" speed="10.14" length="11.81" shape="336.66,489.70 338.87,487.28 342.24,485.29 346.64,483.88"/>
    </edge>
    <edge id=":B3_19" function="internal">
        <lane id=":B3_19_0" index="0" speed="3.65" length="3.23" shape="336.29,491.98 337.15,491.76 337.84,492.33 338.36,493.68"/>
    </edge>
    <edge id=":B4_0" function="internal">
        <lane id=":B4_0_0" index="0" speed="8.94" length="11.80" shape="276.40,440.28 273.35,438.21 270.53,437.04 267.94,436.77 265.57,437.41"/>
    </edge>
    <edge id=":B4_1" function="internal">
        <lane id=":B4_1_0" index="0" speed="12.79" length="18.40" shape="276.40,440.28 273.03,436.97 270.62,433.20 269.17,428.97 268.69,424.27"/>
    </edge>
    <edge id=":B4_2" function="internal">
        <lane id=":B4_2_0" index="0" speed="7.44" length="16.31" shape="276.40,440.28 273.08,436.79 272.20,433.57 273.77,430.64 277.79,427.97"/>
    </edge>
    <edge id=":B4_3" function="internal">
        <lane id=":B4_3_0" index="0" speed="3.65" length="4.67" shape="276.40,440.28 275.96,438.91 276.15,438.03 276.96,437.66 278.40,437.78"/>
    </edge>
    <edge id=":B4_4" function="internal">
        <lane id=":B4_4_0" index="0" speed="5.75" length="9.17" shape="279.18,430.86 276.92,432.35 276.03,434.01 276.53,435.81 278.40,437.78"/>
    </edge>
    <edge id=":B4_5" function="internal">
        <lane id=":B4_5_0" index="0" speed="13.89" length="15.10" shape="279.18,430.86 265.57,437.41"/>
    </edge>
    <edge id=":B4_6" function="internal">
        <lane id=":B4_6_0" index="0" speed="7.44" length="4.82" shape="279.18,430.86 274.59,432.34"/>
    </edge>
    <edge id=":B4_7" function="internal">
        <lane id=":B4_7_0" index="0" speed="3.65" length="1.44" shape="279.18,430.86 277.75,430.66"/>
    </edge>
    <edge id=":B4_16" function="internal">
        <lane id=":B4_16_0" index="0" speed="7.44" length="11.49" shape="274.59,432.34 271.31,431.73 269.35,429.04 268.69,424.27"/>
    </edge>
    <edge id=":B4_17" function="internal">
        <lane id=":B4_17_0" index="0" speed="3.65" length="3.23" shape="277.75,430.66 277.04,430.11 277.05,429.21 277.79,427.97"/>
    </edge>
    <edge id=":B4_8" function="internal">
        <lane id=":B4_8_0" index="0" speed="5.75" length="9.17" shape="271.89,424.27 272.26,426.95 273.37,428.47 275.21,428.81 277.79,427.97"/>
    </edge>
    <edge id=":B4_9" function="internal">
        <lane id=":B4_9_0" index="0" speed="11.78" length="15.52" shape="271.89,424.27 272.30,428.23 273.52,431.81 275.55,434.99 278.40,437.78"/>
    </edge>
    <edge id=":B4_10" function="internal">
        <lane id=":B4_10_0" index="0" speed="10.14" length="15.39" shape="271.89,424.27 271.50,428.87 270.31,432.60 268.33,435.45 265.57,437.41"/>
    </edge>
    <edge id=":B4_11" function="internal">
        <lane id=":B4_11_0" index="0" speed="3.65" length="4.67" shape="271.89,424.27 271.09,425.47 270.29,425.87 269.49,425.47 268.69,424.27"/>
    </edge>
    <edge id=":B4_12" function="internal">
        <lane id=":B4_12_0" index="0" speed="8.94" length="11.80" shape="264.18,434.53 266.15,433.07 267.56,430.88 268.41,427.94 268.69,424.27"/>
    </edge>
    <edge id=":B4_13" function="internal">
        <lane id=":B4_13_0" index="0" speed="13.89" length="15.10" shape="264.18,434.53 277.79,427.97"/>
    </edge>
    <edge id=":B4_14" function="internal">
        <lane id=":B4_14_0" index="0" speed="10.14" length="3.58" shape="264.18,434.53 267.44,433.59 267.63,433.60"/>
    </edge>
    <edge id=":B4_15" function="internal">
        <lane id=":B4_15_0" index="0" speed="3.65" length="1.44" shape="264.18,434.53 265.61,434.73"/>
    </edge>
    <edge id=":B4_18" function="internal">
        <lane id=":B4_18_0" index="0" speed="10.14" length="11.81" shape="267.63,433.60 270.90,433.82 274.55,435.21 278.40,437.78"/>
    </edge>
    <edge id=":B4_19" function="internal">
        <lane id=":B4_19_0" index="0" speed="3.65" length="3.23" shape="265.61,434.73 266.32,435.27 266.30,436.17 265.57,437.41"/>
    </edge>
    <edge id=":B5_0" function="internal">
        <lane id=":B5_0_0" index="0" speed="8.94" length="11.80" shape="268.69,355.68 268.41,352.00 267.56,349.07 266.15,346.87 264.18,345.42"/>
    </edge>
    <edge id=":B5_1" function="internal">
        <lane id=":B5_1_0" index="0" speed="12.79" length="18.40" shape="268.69,355.68 269.17,350.98 270.62,346.74 273.03,342.97 276.40,339.66"/>
    </edge>
    <edge id=":B5_2" function="internal">
        <lane id=":B5_2_0" index="0" speed="7.44" length="16.31" shape="268.69,355.68 269.35,350.90 271.31,348.21 274.59,347.60 279.18,349.09"/>
    </edge>
    <edge id=":B5_3" function="internal">
        <lane id=":B5_3_0" index="0" speed="3.65" length="4.67" shape="268.69,355.68 269.49,354.48 270.29,354.08 271.09,354.48 271.89,355.68"/>
    </edge>
    <edge id=":B5_4" function="internal">
        <lane id=":B5_4_0" index="0" speed="5.75" length="9.17" shape="277.79,351.97 275.21,351.14 273.37,351.48 272.26,352.99 271.89,355.68"/>
    </edge>
    <edge id=":B5_5" function="internal">
        <lane id=":B5_5_0" index="0" speed="13.89" length="15.10" shape="277.79,351.97 264.18,345.42"/>
    </edge>
    <edge id=":B5_6" function="internal">
        <lane id=":B5_6_0" index="0" speed="7.44" length="4.82" shape="277.79,351.97 273.77,349.31"/>
    </edge>
    <edge id=":B5_7" function="internal">
        <lane id=":B5_7_0" index="0" speed="3.65" length="1.44" shape="277.79,351.97 277.05,350.73"/>
    </edge>
    <edge id=":B5_16" function="internal">
        <lane id=":B5_16_0" index="0" speed="7.44" length="11.49" shape="273.77,349.31 272.20,346.37 273.08,343.15 276.40,339.66"/>
    </edge>
    <edge id=":B5_17" function="internal">
        <lane id=":B5_17_0" index="0" speed="3.65" length="3.23" shape="277.05,350.73 277.04,349.83 277.75,349.29 279.18,349.09"/>
    </edge>
    <edge id=":B5_8" function="internal">
        <lane id=":B5_8_0" index="0" speed="5.75" length="9.17" shape="278.40,342.16 276.53,344.13 276.03,345.94 276.92,347.59 279.18,349.09"/>
    </edge>
    <edge id=":B5_9" function="internal">
        <lane id=":B5_9_0" index="0" speed="11.78" length="15.52" shape="278.40,342.16 275.55,344.95 273.52,348.14 272.30,351.71 271.89,355.68"/>
    </edge>
    <edge id=":B5_10" function="internal">
        <lane id=":B5_10_0" index="0" speed="10.14" length="15.39" shape="278.40,342.16 274.55,344.73 270.90,346.13 267.44,346.35 264.18,345.42"/>
    </edge>
    <edge id=":B5_11" function="internal">
        <lane id=":B5_11_0" index="0" speed="3.65" length="4.67" shape="278.40,342.16 276.96,342.29 276.15,341.91 275.96,341.04 276.40,339.66"/>
    </edge>
    <edge id=":B5_12" function="internal">
        <lane id=":B5_12_0" index="0" speed="8.94" length="11.80" shape="265.57,342.53 267.94,343.17 270.53,342.90 273.35,341.73 276.40,339.66"/>
    </edge>
    <edge id=":B5_13" function="internal">
        <lane id=":B5_13_0" index="0" speed="13.89" length="15.10" shape="265.57,342.53 279.18,349.09"/>
    </edge>
    <edge id=":B5_14" function="internal">
        <lane id=":B5_14_0" index="0" speed="10.14" length="3.58" shape="265.57,342.53 268.33,344.50 268.44,344.65"/>
    </edge>
    <edge id=":B5_15" function="internal">
        <lane id=":B5_15_0" index="0" speed="3.65" length="1.44" shape="265.57,342.53 266.30,343.77"/>
    </edge>
    <edge id=":B5_18" function="internal">
        <lane id=":B5_18_0" index="0" speed="10.14" length="11.81" shape="268.44,344.65 270.31,347.34 271.50,351.07 271.89,355.68"/>
    </edge>
    <edge id=":B5_19" function="internal">
        <lane id=":B5_19_0" index="0" speed="3.65" length="3.23" shape="266.30,343.77 266.32,344.67 265.61,345.22 264.18,345.42"/>
    </edge>
    <edge id=":B6_0" function="internal">
        <lane id=":B6_0_0" index="0" speed="5.75" length="9.17" shape="338.60,301.70 337.64,299.16 336.23,297.93 334.35,298.01 332.02,299.40"/>
    </edge>
    <edge id=":B6_1" function="internal">
        <lane id=":B6_1_0" index="0" speed="13.89" length="15.10" shape="338.60,301.70 335.24,286.97"/>
    </edge>
    <edge id=":B6_2" function="internal">
        <lane id=":B6_2_0" index="0" speed="7.44" length="4.82" shape="338.60,301.70 338.18,296.90"/>
    </edge>
    <edge id=":B6_3" function="internal">
        <lane id=":B6_3_0" index="0" speed="3.65" length="1.44" shape="338.60,301.70 339.11,300.35"/>
    </edge>
    <edge id=":B6_16" function="internal">