<?xml version="1.0" encoding="UTF-8"?>

<!-- generated on 2024-11-08 14:00:23 by Eclipse SUMO netgenerate Version 1.21.0
<netgenerateConfiguration xmlns:xsi="http://www.w3.org/2001/XMLSchema-instance" xsi:noNamespaceSchemaLocation="http://sumo.dlr.de/xsd/netgenerateConfiguration.xsd">

    <random_network>
        <rand value="true"/>
        <rand.iterations value="36"/>
    </random_network>

    <output>
        <output-file value="generated-nets/rand-nets/rand3.net.xml"/>
    </output>

</netgenerateConfiguration>
-->

<net version="1.20" junctionCornerDetail="5" limitTurnSpeed="5.50" xmlns:xsi="http://www.w3.org/2001/XMLSchema-instance" xsi:noNamespaceSchemaLocation="http://sumo.dlr.de/xsd/net_file.xsd">

    <location netOffset="354.42,565.34" convBoundary="0.00,0.00,1182.66,1079.89" origBoundary="-354.42,-565.34,828.24,514.55" projParameter="!"/>

    <edge id=":1_0" function="internal">
        <lane id=":1_0_0" index="0" speed="5.98" length="9.08" shape="352.95,573.63 352.54,571.06 351.41,569.49 349.56,568.91 346.99,569.32"/>
    </edge>
    <edge id=":1_1" function="internal">
        <lane id=":1_1_0" index="0" speed="13.89" length="14.86" shape="352.95,573.63 352.81,569.91 352.50,566.22 351.98,562.56 351.23,558.91"/>
    </edge>
    <edge id=":1_2" function="internal">
        <lane id=":1_2_0" index="0" speed="8.09" length="4.36" shape="352.95,573.63 353.45,569.30"/>
    </edge>
    <edge id=":1_3" function="internal">
        <lane id=":1_3_0" index="0" speed="3.65" length="1.44" shape="352.95,573.63 353.73,572.42"/>
    </edge>
    <edge id=":1_16" function="internal">
        <lane id=":1_16_0" index="0" speed="8.09" length="10.76" shape="353.45,569.30 355.10,566.25 357.90,564.49 361.85,564.02"/>
    </edge>
    <edge id=":1_17" function="internal">
        <lane id=":1_17_0" index="0" speed="3.65" length="3.23" shape="353.73,572.42 354.52,572.01 355.33,572.40 356.15,573.58"/>
    </edge>
    <edge id=":1_4" function="internal">
        <lane id=":1_4_0" index="0" speed="6.62" length="9.76" shape="361.73,567.22 359.25,567.53 357.49,568.70 356.46,570.72 356.15,573.58"/>
    </edge>
    <edge id=":1_5" function="internal">
        <lane id=":1_5_0" index="0" speed="13.89" length="14.95" shape="361.73,567.22 357.99,567.26 354.28,567.64 350.61,568.34 346.99,569.32"/>
    </edge>
    <edge id=":1_6" function="internal">
        <lane id=":1_6_0" index="0" speed="9.03" length="14.51" shape="361.73,567.22 357.86,566.57 354.81,564.98 352.61,562.42 351.23,558.91"/>
    </edge>
    <edge id=":1_7" function="internal">
        <lane id=":1_7_0" index="0" speed="3.65" length="4.67" shape="361.73,567.22 360.56,566.37 360.19,565.56 360.62,564.77 361.85,564.02"/>
    </edge>
    <edge id=":1_8" function="internal">
        <lane id=":1_8_0" index="0" speed="7.70" length="10.32" shape="354.34,558.16 355.32,560.64 356.89,562.44 359.07,563.56 361.85,564.02"/>
    </edge>
    <edge id=":1_9" function="internal">
        <lane id=":1_9_0" index="0" speed="13.89" length="15.56" shape="354.34,558.16 355.11,561.92 355.65,565.82 356.00,569.75 356.15,573.58"/>
    </edge>
    <edge id=":1_10" function="internal">
        <lane id=":1_10_0" index="0" speed="8.41" length="4.08" shape="354.34,558.16 354.63,561.96 354.53,562.21"/>
    </edge>
    <edge id=":1_11" function="internal">
        <lane id=":1_11_0" index="0" speed="3.65" length="1.44" shape="354.34,558.16 353.84,559.51"/>
    </edge>
    <edge id=":1_18" function="internal">
        <lane id=":1_18_0" index="0" speed="8.41" length="10.92" shape="354.53,562.21 353.50,565.08 350.95,567.53 346.99,569.32"/>
    </edge>
    <edge id=":1_19" function="internal">
        <lane id=":1_19_0" index="0" speed="3.65" length="3.23" shape="353.84,559.51 353.16,560.09 352.29,559.89 351.23,558.91"/>
    </edge>
    <edge id=":1_12" function="internal">
        <lane id=":1_12_0" index="0" speed="7.00" length="10.09" shape="346.04,566.26 348.79,565.05 350.58,563.42 351.39,561.37 351.23,558.91"/>
    </edge>
    <edge id=":1_13" function="internal">
        <lane id=":1_13_0" index="0" speed="13.89" length="16.03" shape="346.04,566.26 349.83,565.26 353.86,564.51 357.95,564.08 361.85,564.02"/>
    </edge>
    <edge id=":1_14" function="internal">
        <lane id=":1_14_0" index="0" speed="7.59" length="15.41" shape="346.04,566.26 350.40,565.56 353.54,566.55 355.46,569.22 356.15,573.58"/>
    </edge>
    <edge id=":1_15" function="internal">
        <lane id=":1_15_0" index="0" speed="3.65" length="4.67" shape="346.04,566.26 347.43,566.67 348.05,567.32 347.90,568.20 346.99,569.32"/>
    </edge>
    <edge id=":10_0" function="internal">
        <lane id=":10_0_0" index="0" speed="3.65" length="4.67" shape="192.60,617.23 191.22,616.82 190.60,616.17 190.75,615.29 191.66,614.17"/>
    </edge>
    <edge id=":115_0" function="internal">
        <lane id=":115_0_0" index="0" speed="5.67" length="9.24" shape="526.53,258.08 524.98,255.79 523.33,254.95 521.59,255.57 519.76,257.65"/>
    </edge>
    <edge id=":115_1" function="internal">
        <lane id=":115_1_0" index="0" speed="11.86" length="15.57" shape="526.53,258.08 524.34,254.55 521.67,251.78 518.52,249.77 514.90,248.53"/>
    </edge>
    <edge id=":115_2" function="internal">
        <lane id=":115_2_0" index="0" speed="3.65" length="1.34" shape="526.53,258.08 526.70,256.75"/>
    </edge>
    <edge id=":115_9" function="internal">
        <lane id=":115_9_0" index="0" speed="3.65" length="3.33" shape="526.70,256.75 526.71,256.65 527.25,255.93 528.14,255.94 529.39,256.65"/>
    </edge>
    <edge id=":115_3" function="internal">
        <lane id=":115_3_0" index="0" speed="12.87" length="18.42" shape="515.59,245.41 519.91,246.88 523.65,249.24 526.81,252.50 529.39,256.65"/>
    </edge>
    <edge id=":115_4" function="internal">
        <lane id=":115_4_0" index="0" speed="7.64" length="5.91" shape="515.59,245.41 519.88,247.07 520.72,248.08"/>
    </edge>
    <edge id=":115_5" function="internal">
        <lane id=":115_5_0" index="0" speed="3.65" length="1.44" shape="515.59,245.41 516.59,246.45"/>
    </edge>
    <edge id=":115_10" function="internal">
        <lane id=":115_10_0" index="0" speed="7.64" length="10.55" shape="520.72,248.08 522.01,249.66 521.97,253.19 519.76,257.65"/>
    </edge>
    <edge id=":115_11" function="internal">
        <lane id=":115_11_0" index="0" speed="3.65" length="3.23" shape="516.59,246.45 516.81,247.32 516.24,248.01 514.90,248.53"/>
    </edge>
    <edge id=":115_6" function="internal">
        <lane id=":115_6_0" index="0" speed="6.02" length="9.74" shape="517.10,255.88 518.46,253.18 518.54,251.06 517.36,249.51 514.90,248.53"/>
    </edge>
    <edge id=":115_7" function="internal">
        <lane id=":115_7_0" index="0" speed="7.41" length="16.77" shape="517.10,255.88 520.42,252.10 523.58,250.97 526.57,252.48 529.39,256.65"/>
    </edge>
    <edge id=":115_8" function="internal">
        <lane id=":115_8_0" index="0" speed="3.65" length="4.67" shape="517.10,255.88 518.43,255.32 519.32,255.43 519.76,256.21 519.76,257.65"/>
    </edge>
    <edge id=":118_0" function="internal">
        <lane id=":118_0_0" index="0" speed="13.89" length="17.12" shape="130.43,242.45 126.49,243.44 122.05,243.99 117.56,244.16 113.47,244.04"/>
    </edge>
    <edge id=":118_1" function="internal">
        <lane id=":118_1_0" index="0" speed="9.29" length="4.10" shape="130.43,242.45 126.79,242.98 126.38,242.86"/>
    </edge>
    <edge id=":118_2" function="internal">
        <lane id=":118_2_0" index="0" speed="3.65" length="1.44" shape="130.43,242.45 129.03,242.09"/>
    </edge>
    <edge id=":118_9" function="internal">
        <lane id=":118_9_0" index="0" speed="9.29" length="12.40" shape="126.38,242.86 123.36,241.96 120.13,239.39 117.11,235.26"/>
    </edge>
    <edge id=":118_10" function="internal">
        <lane id=":118_10_0" index="0" speed="3.65" length="3.23" shape="129.03,242.09 128.39,241.47 128.50,240.58 129.37,239.43"/>
    </edge>
    <edge id=":118_3" function="internal">
        <lane id=":118_3_0" index="0" speed="8.03" length="12.09" shape="119.85,233.62 122.14,236.82 124.49,238.85 126.90,239.72 129.37,239.43"/>
    </edge>
    <edge id=":118_4" function="internal">
        <lane id=":118_4_0" index="0" speed="7.38" length="17.43" shape="119.85,233.62 121.98,238.51 121.63,241.87 118.79,243.72 113.47,244.04"/>
    </edge>
    <edge id=":118_5" function="internal">
        <lane id=":118_5_0" index="0" speed="3.65" length="4.67" shape="119.85,233.62 119.78,235.06 119.30,235.82 118.41,235.88 117.11,235.26"/>
    </edge>
    <edge id=":118_6" function="internal">
        <lane id=":118_6_0" index="0" speed="5.59" length="9.34" shape="113.68,240.85 116.54,240.67 118.06,239.69 118.25,237.88 117.11,235.26"/>
    </edge>
    <edge id=":118_7" function="internal">
        <lane id=":118_7_0" index="0" speed="13.89" length="15.84" shape="113.68,240.85 117.58,241.00 121.63,240.88 125.63,240.39 129.37,239.43"/>
    </edge>
    <edge id=":118_8" function="internal">
        <lane id=":118_8_0" index="0" speed="3.65" length="1.44" shape="113.68,240.85 114.83,241.73"/>
    </edge>
    <edge id=":118_11" function="internal">
        <lane id=":118_11_0" index="0" speed="3.65" length="3.23" shape="114.83,241.73 115.17,242.55 114.72,243.32 113.47,244.04"/>
    </edge>
    <edge id=":12_0" function="internal">
        <lane id=":12_0_0" index="0" speed="13.89" length="19.16" shape="433.94,398.24 430.93,395.06 426.87,391.85 422.50,389.04 418.55,387.08"/>
    </edge>
    <edge id=":12_1" function="internal">
        <lane id=":12_1_0" index="0" speed="13.89" length="20.94" shape="433.94,398.24 431.40,394.32 428.58,389.26 425.98,384.08 424.10,379.79"/>
    </edge>
    <edge id=":12_2" function="internal">
        <lane id=":12_2_0" index="0" speed="10.88" length="5.51" shape="433.94,398.24 431.64,393.91 431.55,393.31"/>
    </edge>
    <edge id=":12_3" function="internal">
        <lane id=":12_3_0" index="0" speed="7.68" length="5.06" shape="433.94,398.24 431.66,393.88 431.68,393.73"/>
    </edge>
    <edge id=":12_4" function="internal">
        <lane id=":12_4_0" index="0" speed="3.65" length="1.44" shape="433.94,398.24 433.87,396.79"/>
    </edge>
    <edge id=":12_25" function="internal">
        <lane id=":12_25_0" index="0" speed="10.88" length="14.52" shape="431.55,393.31 430.97,389.36 431.93,384.58 434.54,379.57"/>
    </edge>
    <edge id=":12_26" function="internal">
        <lane id=":12_26_0" index="0" speed="7.68" length="12.84" shape="431.68,393.73 432.00,390.49 434.94,388.05 440.50,386.56"/>
    </edge>
    <edge id=":12_27" function="internal">
        <lane id=":12_27_0" index="0" speed="3.65" length="3.23" shape="433.87,396.79 434.27,396.00 435.16,395.84 436.51,396.33"/>
    </edge>
    <edge id=":12_5" function="internal">
        <lane id=":12_5_0" index="0" speed="6.05" length="10.54" shape="440.96,389.73 437.52,390.61 435.63,392.00 435.30,393.90 436.51,396.33"/>
    </edge>
    <edge id=":12_6" function="internal">
        <lane id=":12_6_0" index="0" speed="13.89" length="22.69" shape="440.96,389.73 436.03,389.88 429.64,389.37 423.32,388.38 418.55,387.08"/>
    </edge>
    <edge id=":12_7" function="internal">
        <lane id=":12_7_0" index="0" speed="10.61" length="21.40" shape="440.96,389.73 435.28,389.79 430.57,388.15 426.85,384.82 424.10,379.79"/>
    </edge>
    <edge id=":12_8" function="internal">
        <lane id=":12_8_0" index="0" speed="7.40" length="18.69" shape="440.96,389.73 435.07,389.90 432.04,388.26 431.86,384.82 434.54,379.57"/>
    </edge>
    <edge id=":12_9" function="internal">
        <lane id=":12_9_0" index="0" speed="3.65" length="4.67" shape="440.96,389.73 439.66,389.11 439.15,388.38 439.43,387.53 440.50,386.56"/>
    </edge>
    <edge id=":12_10" function="internal">
        <lane id=":12_10_0" index="0" speed="5.50" length="9.60" shape="437.20,381.35 435.82,384.04 435.91,385.81 437.47,386.65 440.50,386.56"/>
    </edge>
    <edge id=":12_11" function="internal">
        <lane id=":12_11_0" index="0" speed="9.79" length="16.07" shape="437.20,381.35 435.06,385.42 434.23,389.28 434.72,392.91 436.51,396.33"/>
    </edge>
    <edge id=":12_12" function="internal">
        <lane id=":12_12_0" index="0" speed="10.55" length="21.36" shape="437.20,381.35 433.43,385.60 429.07,387.98 424.11,388.47 418.55,387.08"/>
    </edge>
    <edge id=":12_13" function="internal">
        <lane id=":12_13_0" index="0" speed="7.65" length="18.93" shape="437.20,381.35 433.41,385.71 429.96,386.90 426.86,384.93 424.10,379.79"/>
    </edge>
    <edge id=":12_14" function="internal">
        <lane id=":12_14_0" index="0" speed="3.65" length="4.67" shape="437.20,381.35 435.87,381.90 434.98,381.79 434.54,381.01 434.54,379.57"/>
    </edge>
    <edge id=":12_15" function="internal">
        <lane id=":12_15_0" index="0" speed="5.93" length="10.77" shape="427.09,378.64 428.66,381.58 430.42,382.71 432.38,382.04 434.54,379.57"/>
    </edge>
    <edge id=":12_16" function="internal">
        <lane id=":12_16_0" index="0" speed="9.51" length="17.03" shape="427.09,378.64 429.27,382.65 432.24,385.30 435.98,386.61 440.50,386.56"/>
    </edge>
    <edge id=":12_17" function="internal">
        <lane id=":12_17_0" index="0" speed="13.89" length="20.08" shape="427.09,378.64 428.90,382.81 431.35,387.73 434.03,392.53 436.51,396.33"/>
    </edge>
    <edge id=":12_18" function="internal">
        <lane id=":12_18_0" index="0" speed="7.40" length="4.41" shape="427.09,378.64 428.18,382.92"/>
    </edge>
    <edge id=":12_19" function="internal">
        <lane id=":12_19_0" index="0" speed="3.65" length="1.44" shape="427.09,378.64 426.77,380.05"/>
    </edge>
    <edge id=":12_28" function="internal">
        <lane id=":12_28_0" index="0" speed="7.40" length="14.40" shape="428.18,382.92 428.57,384.41 427.64,387.74 424.30,388.63 418.55,387.08"/>
    </edge>
    <edge id=":12_29" function="internal">
        <lane id=":12_29_0" index="0" speed="3.65" length="3.23" shape="426.77,380.05 426.17,380.71 425.28,380.62 424.10,379.79"/>
    </edge>
    <edge id=":12_20" function="internal">
        <lane id=":12_20_0" index="0" speed="5.49" length="9.62" shape="419.73,384.11 422.67,384.90 424.38,384.44 424.86,382.74 424.10,379.79"/>
    </edge>
    <edge id=":12_21" function="internal">
        <lane id=":12_21_0" index="0" speed="9.45" length="16.95" shape="419.73,384.11 424.15,385.21 428.09,384.82 431.55,382.94 434.54,379.57"/>
    </edge>
    <edge id=":12_22" function="internal">
        <lane id=":12_22_0" index="0" speed="13.89" length="21.03" shape="419.73,384.11 424.24,385.37 430.00,386.30 435.82,386.75 440.50,386.56"/>
    </edge>
    <edge id=":12_23" function="internal">
        <lane id=":12_23_0" index="0" speed="13.89" length="20.90" shape="419.73,384.11 423.90,386.23 428.75,389.40 433.29,392.98 436.51,396.33"/>
    </edge>
    <edge id=":12_24" function="internal">
        <lane id=":12_24_0" index="0" speed="3.65" length="4.67" shape="419.73,384.11 420.55,385.29 420.63,386.18 419.96,386.78 418.55,387.08"/>
    </edge>
    <edge id=":122_0" function="internal">
        <lane id=":122_0_0" index="0" speed="6.55" length="7.91" shape="802.15,356.08 800.03,356.06 798.30,356.68 796.97,357.94 796.02,359.84"/>
    </edge>
    <edge id=":122_1" function="internal">
        <lane id=":122_1_0" index="0" speed="8.64" length="12.14" shape="802.15,356.08 798.98,355.22 796.51,353.67 794.75,351.44 793.69,348.52"/>
    </edge>
    <edge id=":122_2" function="internal">
        <lane id=":122_2_0" index="0" speed="3.65" length="4.67" shape="802.15,356.08 801.08,355.12 800.80,354.27 801.31,353.54 802.62,352.92"/>
    </edge>
    <edge id=":122_3" function="internal">
        <lane id=":122_3_0" index="0" speed="7.22" length="8.24" shape="796.82,347.85 797.54,349.80 798.74,351.29 800.43,352.33 802.62,352.92"/>
    </edge>
    <edge id=":122_4" function="internal">
        <lane id=":122_4_0" index="0" speed="13.89" length="12.20" shape="796.82,347.85 797.37,351.12 797.42,353.90 796.97,356.65 796.02,359.84"/>
    </edge>
    <edge id=":122_5" function="internal">
        <lane id=":122_5_0" index="0" speed="3.65" length="1.44" shape="796.82,347.85 796.29,349.19"/>
    </edge>
    <edge id=":122_9" function="internal">
        <lane id=":122_9_0" index="0" speed="3.65" length="3.23" shape="796.29,349.19 795.60,349.75 794.73,349.53 793.69,348.52"/>
    </edge>
    <edge id=":122_6" function="internal">
        <lane id=":122_6_0" index="0" speed="13.89" length="10.53" shape="792.99,358.81 793.92,355.89 794.34,353.73 794.25,351.53 793.69,348.52"/>
    </edge>
    <edge id=":122_7" function="internal">
        <lane id=":122_7_0" index="0" speed="8.05" length="3.47" shape="792.99,358.81 794.47,355.83 794.58,355.74"/>
    </edge>
    <edge id=":122_8" function="internal">
        <lane id=":122_8_0" index="0" speed="3.65" length="1.44" shape="792.99,358.81 794.13,357.93"/>
    </edge>
    <edge id=":122_10" function="internal">
        <lane id=":122_10_0" index="0" speed="8.05" length="8.95" shape="794.58,355.74 796.57,353.86 799.29,352.88 802.62,352.92"/>
    </edge>
    <edge id=":122_11" function="internal">
        <lane id=":122_11_0" index="0" speed="3.65" length="3.23" shape="794.13,357.93 795.02,357.81 795.65,358.44 796.02,359.84"/>
    </edge>
    <edge id=":124_0" function="internal">
        <lane id=":124_0_0" index="0" speed="7.16" length="10.01" shape="878.36,642.63 876.52,641.01 874.41,640.34 872.02,640.62 869.36,641.85"/>
    </edge>
    <edge id=":124_1" function="internal">
        <lane id=":124_1_0" index="0" speed="13.89" length="14.62" shape="878.36,642.63 868.69,631.66"/>
    </edge>
    <edge id=":124_2" function="internal">
        <lane id=":124_2_0" index="0" speed="3.65" length="1.44" shape="878.36,642.63 878.23,641.19"/>
    </edge>
    <edge id=":124_9" function="internal">
        <lane id=":124_9_0" index="0" speed="3.65" length="3.23" shape="878.23,641.19 878.59,640.38 879.47,640.18 880.84,640.61"/>
    </edge>
    <edge id=":124_3" function="internal">
        <lane id=":124_3_0" index="0" speed="13.89" length="14.86" shape="871.02,629.46 880.84,640.61"/>
    </edge>
    <edge id=":124_4" function="internal">
        <lane id=":124_4_0" index="0" speed="7.68" length="4.56" shape="871.02,629.46 873.47,632.94 873.52,633.24"/>
    </edge>
    <edge id=":124_5" function="internal">
        <lane id=":124_5_0" index="0" speed="3.65" length="1.44" shape="871.02,629.46 871.26,630.88"/>
    </edge>
    <edge id=":124_10" function="internal">
        <lane id=":124_10_0" index="0" speed="7.68" length="10.50" shape="873.52,633.24 874.02,636.17 872.64,639.14 869.36,641.85"/>
    </edge>
    <edge id=":124_11" function="internal">
        <lane id=":124_11_0" index="0" speed="3.65" length="3.23" shape="871.26,630.88 870.96,631.73 870.10,631.98 868.69,631.66"/>
    </edge>
    <edge id=":124_6" function="internal">
        <lane id=":124_6_0" index="0" speed="6.10" length="9.06" shape="867.69,639.11 869.67,637.48 870.50,635.70 870.17,633.76 868.69,631.66"/>
    </edge>
    <edge id=":124_7" function="internal">
        <lane id=":124_7_0" index="0" speed="8.55" length="14.67" shape="867.69,639.11 871.51,637.38 874.98,637.06 878.09,638.13 880.84,640.61"/>
    </edge>
    <edge id=":124_8" function="internal">
        <lane id=":124_8_0" index="0" speed="3.65" length="4.67" shape="867.69,639.11 869.13,639.17 869.89,639.65 869.97,640.54 869.36,641.85"/>
    </edge>
    <edge id=":127_0" function="internal">
        <lane id=":127_0_0" index="0" speed="13.89" length="12.31" shape="707.33,865.98 704.21,867.21 701.67,868.47 699.40,870.13 697.13,872.54"/>
    </edge>
    <edge id=":127_1" function="internal">
        <lane id=":127_1_0" index="0" speed="7.67" length="3.98" shape="707.33,865.98 703.45,866.85"/>
    </edge>
    <edge id=":127_2" function="internal">
        <lane id=":127_2_0" index="0" speed="3.65" length="1.44" shape="707.33,865.98 705.93,865.66"/>
    </edge>
    <edge id=":127_9" function="internal">
        <lane id=":127_9_0" index="0" speed="7.67" length="11.09" shape="703.45,866.85 703.17,866.92 699.99,866.18 697.78,863.77 696.54,859.69"/>
    </edge>
    <edge id=":127_10" function="internal">
        <lane id=":127_10_0" index="0" speed="3.65" length="3.23" shape="705.93,865.66 705.27,865.06 705.36,864.17 706.19,862.99"/>
    </edge>
    <edge id=":127_3" function="internal">
        <lane id=":127_3_0" index="0" speed="6.09" length="9.06" shape="699.70,859.21 700.45,861.66 701.78,863.11 703.69,863.55 706.19,862.99"/>
    </edge>
    <edge id=":127_4" function="internal">
        <lane id=":127_4_0" index="0" speed="11.75" length="13.96" shape="699.70,859.21 700.03,863.26 699.71,866.83 698.74,869.92 697.13,872.54"/>
    </edge>
    <edge id=":127_5" function="internal">
        <lane id=":127_5_0" index="0" speed="3.65" length="4.67" shape="699.70,859.21 699.09,860.51 698.36,861.03 697.51,860.75 696.54,859.69"/>
    </edge>
    <edge id=":127_6" function="internal">
        <lane id=":127_6_0" index="0" speed="10.61" length="11.29" shape="694.65,870.51 695.89,868.47 696.61,865.98 696.83,863.06 696.54,859.69"/>
    </edge>
    <edge id=":127_7" function="internal">
        <lane id=":127_7_0" index="0" speed="13.89" length="13.95" shape="694.65,870.51 697.13,867.95 699.86,865.97 702.86,864.37 706.19,862.99"/>
    </edge>
    <edge id=":127_8" function="internal">
        <lane id=":127_8_0" index="0" speed="3.65" length="1.44" shape="694.65,870.51 696.03,870.09"/>
    </edge>
    <edge id=":127_11" function="internal">
        <lane id=":127_11_0" index="0" speed="3.65" length="3.23" shape="696.03,870.09 696.90,870.28 697.27,871.10 697.13,872.54"/>
    </edge>
    <edge id=":137_0" function="internal">
        <lane id=":137_0_0" index="0" speed="10.89" length="19.96" shape="512.29,873.95 507.38,876.61 502.64,877.64 498.08,877.05 493.69,874.82"/>
    </edge>
    <edge id=":137_1" function="internal">
        <lane id=":137_1_0" index="0" speed="7.39" length="8.31" shape="512.29,873.95 507.15,876.68 504.66,876.60"/>
    </edge>
    <edge id=":137_2" function="internal">
        <lane id=":137_2_0" index="0" speed="3.65" length="1.44" shape="512.29,873.95 510.85,873.98"/>
    </edge>
    <edge id=":137_9" function="internal">
        <lane id=":137_9_0" index="0" speed="7.39" length="10.21" shape="504.66,876.60 503.72,876.57 501.98,873.60 501.95,867.78"/>
    </edge>
    <edge id=":137_10" function="internal">
        <lane id=":137_10_0" index="0" speed="3.65" length="3.23" shape="510.85,873.98 510.07,873.55 509.94,872.66 510.47,871.32"/>
    </edge>
    <edge id=":137_3" function="internal">
        <lane id=":137_3_0" index="0" speed="5.51" length="9.56" shape="505.13,868.13 505.14,871.14 506.04,872.67 507.81,872.73 510.47,871.32"/>
    </edge>
    <edge id=":137_4" function="internal">
        <lane id=":137_4_0" index="0" speed="7.65" length="17.82" shape="505.13,868.13 503.83,873.68 501.50,876.65 498.11,877.03 493.69,874.82"/>
    </edge>
    <edge id=":137_5" function="internal">
        <lane id=":137_5_0" index="0" speed="3.65" length="4.67" shape="505.13,868.13 504.20,869.24 503.36,869.55 502.61,869.06 501.95,867.78"/>
    </edge>
    <edge id=":137_6" function="internal">
        <lane id=":137_6_0" index="0" speed="6.00" length="10.40" shape="495.53,872.21 497.99,873.38 499.88,873.04 501.20,871.17 501.95,867.78"/>
    </edge>
    <edge id=":137_7" function="internal">
        <lane id=":137_7_0" index="0" speed="9.80" length="16.03" shape="495.53,872.21 499.01,873.95 502.65,874.38 506.47,873.50 510.47,871.32"/>
    </edge>
    <edge id=":137_8" function="internal">
        <lane id=":137_8_0" index="0" speed="3.65" length="1.30" shape="495.53,872.21 496.00,873.42"/>
    </edge>
    <edge id=":137_11" function="internal">
        <lane id=":137_11_0" index="0" speed="3.65" length="3.37" shape="496.00,873.42 496.05,873.55 495.92,874.44 495.13,874.86 493.69,874.82"/>
    </edge>
    <edge id=":14_0" function="internal">
        <lane id=":14_0_0" index="0" speed="7.36" length="11.12" shape="242.13,211.82 240.40,208.76 238.43,206.83 236.21,206.03 233.75,206.37"/>
    </edge>
    <edge id=":14_1" function="internal">
        <lane id=":14_1_0" index="0" speed="7.41" length="16.65" shape="242.13,211.82 240.74,207.04 241.47,203.77 244.32,202.01 249.29,201.77"/>
    </edge>
    <edge id=":14_2" function="internal">
        <lane id=":14_2_0" index="0" speed="3.65" length="4.67" shape="242.13,211.82 242.38,210.39 242.94,209.70 243.84,209.75 245.06,210.52"/>
    </edge>
    <edge id=":14_3" function="internal">
        <lane id=":14_3_0" index="0" speed="5.69" length="9.22" shape="249.02,204.96 246.27,205.09 244.69,206.06 244.28,207.87 245.06,210.52"/>
    </edge>
    <edge id=":14_4" function="internal">
        <lane id=":14_4_0" index="0" speed="13.89" length="15.44" shape="249.02,204.96 245.19,204.77 241.29,204.89 237.42,205.39 233.75,206.37"/>
    </edge>
    <edge id=":14_5" function="internal">
        <lane id=":14_5_0" index="0" speed="3.65" length="1.44" shape="249.02,204.96 247.89,204.06"/>
    </edge>
    <edge id=":14_9" function="internal">
        <lane id=":14_9_0" index="0" speed="3.65" length="3.23" shape="247.89,204.06 247.56,203.23 248.03,202.47 249.29,201.77"/>
    </edge>
    <edge id=":14_6" function="internal">
        <lane id=":14_6_0" index="0" speed="13.89" length="16.77" shape="232.69,203.35 236.58,202.35 240.89,201.78 245.26,201.61 249.29,201.77"/>
    </edge>
    <edge id=":14_7" function="internal">
        <lane id=":14_7_0" index="0" speed="8.71" length="4.22" shape="232.69,203.35 236.45,202.75 236.85,202.87"/>
    </edge>
    <edge id=":14_8" function="internal">
        <lane id=":14_8_0" index="0" speed="3.65" length="1.44" shape="232.69,203.35 234.09,203.71"/>
    </edge>
    <edge id=":14_10" function="internal">
        <lane id=":14_10_0" index="0" speed="8.71" length="11.74" shape="236.85,202.87 239.76,203.75 242.63,206.34 245.06,210.52"/>
    </edge>
    <edge id=":14_11" function="internal">
        <lane id=":14_11_0" index="0" speed="3.65" length="3.23" shape="234.09,203.71 234.73,204.33 234.62,205.22 233.75,206.37"/>
    </edge>
    <edge id=":18_0" function="internal">
        <lane id=":18_0_0" index="0" speed="8.64" length="11.94" shape="750.01,506.07 747.99,504.65 745.45,504.08 742.38,504.36 738.77,505.49"/>
    </edge>
    <edge id=":18_1" function="internal">
        <lane id=":18_1_0" index="0" speed="13.89" length="15.38" shape="750.01,506.07 747.32,503.37 744.47,500.74 741.53,498.21 738.59,495.78"/>
    </edge>
    <edge id=":18_2" function="internal">
        <lane id=":18_2_0" index="0" speed="10.29" length="3.55" shape="750.01,506.07 748.05,503.23 748.02,503.13"/>
    </edge>
    <edge id=":18_3" function="internal">
        <lane id=":18_3_0" index="0" speed="3.65" length="1.44" shape="750.01,506.07 749.77,504.65"/>
    </edge>
    <edge id=":18_16" function="internal">
        <lane id=":18_16_0" index="0" speed="10.29" length="11.57" shape="748.02,503.13 747.09,499.91 747.13,496.10 748.16,491.81"/>
    </edge>
    <edge id=":18_17" function="internal">
        <lane id=":18_17_0" index="0" speed="3.65" length="3.23" shape="749.77,504.65 750.07,503.81 750.93,503.55 752.33,503.87"/>
    </edge>
    <edge id=":18_4" function="internal">
        <lane id=":18_4_0" index="0" speed="9.09" length="11.66" shape="751.19,492.84 750.35,496.24 750.26,499.22 750.92,501.76 752.33,503.87"/>
    </edge>
    <edge id=":18_5" function="internal">
        <lane id=":18_5_0" index="0" speed="13.11" length="18.30" shape="751.19,492.84 749.30,496.95 746.59,500.43 743.09,503.27 738.77,505.49"/>
    </edge>
    <edge id=":18_6" function="internal">
        <lane id=":18_6_0" index="0" speed="7.65" length="16.38" shape="751.19,492.84 749.10,496.90 746.30,498.74 742.80,498.37 738.59,495.78"/>
    </edge>
    <edge id=":18_7" function="internal">
        <lane id=":18_7_0" index="0" speed="3.65" length="4.67" shape="751.19,492.84 750.05,493.72 749.16,493.84 748.53,493.21 748.16,491.81"/>
    </edge>
    <edge id=":18_8" function="internal">
        <lane id=":18_8_0" index="0" speed="6.04" length="9.72" shape="740.61,493.29 743.16,494.89 745.26,495.17 746.93,494.15 748.16,491.81"/>
    </edge>
    <edge id=":18_9" function="internal">
        <lane id=":18_9_0" index="0" speed="13.89" length="15.80" shape="740.61,493.29 743.60,495.77 746.64,498.40 749.60,501.13 752.33,503.87"/>
    </edge>
    <edge id=":18_10" function="internal">
        <lane id=":18_10_0" index="0" speed="7.41" length="4.99" shape="740.61,493.29 744.03,496.93"/>
    </edge>
    <edge id=":18_11" function="internal">
        <lane id=":18_11_0" index="0" speed="3.65" length="1.44" shape="740.61,493.29 741.04,494.67"/>
    </edge>
    <edge id=":18_18" function="internal">
        <lane id=":18_18_0" index="0" speed="7.41" length="11.69" shape="744.03,496.93 744.87,500.17 743.11,503.02 738.77,505.49"/>
    </edge>
    <edge id=":18_19" function="internal">
        <lane id=":18_19_0" index="0" speed="3.65" length="3.23" shape="741.04,494.67 740.84,495.55 740.03,495.91 738.59,495.78"/>
    </edge>
    <edge id=":18_12" function="internal">
        <lane id=":18_12_0" index="0" speed="5.69" length="9.22" shape="737.58,502.52 739.98,501.16 740.95,499.58 740.48,497.79 738.59,495.78"/>
    </edge>
    <edge id=":18_13" function="internal">
        <lane id=":18_13_0" index="0" speed="12.11" length="15.54" shape="737.58,502.52 741.26,500.63 744.26,498.22 746.55,495.28 748.16,491.81"/>
    </edge>
    <edge id=":18_14" function="internal">
        <lane id=":18_14_0" index="0" speed="9.86" length="15.77" shape="737.58,502.52 742.16,501.13 746.15,500.89 749.54,501.81 752.33,503.87"/>
    </edge>
    <edge id=":18_15" function="internal">