<?xml version="1.0" encoding="UTF-8"?>

<!-- generated on 2024-11-07 16:53:02 by Eclipse SUMO sumo Version 1.21.0
-->

<sumoConfiguration xmlns:xsi="http://www.w3.org/2001/XMLSchema-instance" xsi:noNamespaceSchemaLocation="http://sumo.dlr.de/xsd/sumoConfiguration.xsd">

    <input>
        <net-file value="../generated-nets/grid-nets/grid0.net.xml"/>
        <route-files value="grid.rou.xml"/>
        <additional-files value="grid.add.xml"/>
    </input>

</sumoConfiguration>
