<?xml version="1.0" encoding="UTF-8"?>

<!-- generated on 2024-11-08 13:51:19 by Eclipse SUMO sumo Version 1.21.0
-->

<sumoConfiguration xmlns:xsi="http://www.w3.org/2001/XMLSchema-instance" xsi:noNamespaceSchemaLocation="http://sumo.dlr.de/xsd/sumoConfiguration.xsd">

    <input>
        <net-file value="../generated-nets/spider-nets/spider0.net.xml"/>
        <route-files value="spider.rou.xml"/>
        <additional-files value="spider.add.xml"/>
    </input>

</sumoConfiguration>
